
  EPA STORM WATER MANAGEMENT MODEL - VERSION 5.1 (Build 5.2.0.dev1)
  --------------------------------------------------------------

  
  *********************************************************
  NOTE: The summary statistics displayed in this report are
  based on results found at every computational time step,  
  not just on results from each reporting time step.
  *********************************************************
  
  ****************
  Analysis Options
  ****************
  Flow Units ............... MLD
  Process Models:
    Rainfall/Runoff ........ YES
    RDII ................... NO
    Snowmelt ............... NO
    Groundwater ............ NO
    Flow Routing ........... YES
    Ponding Allowed ........ NO
    Water Quality .......... YES
  Infiltration Method ...... GREEN_AMPT
  Flow Routing Method ...... DYNWAVE
  Starting Date ............ 08/28/2015 08:00:00
  Ending Date .............. 08/28/2015 12:00:00
  Antecedent Dry Days ...... 4.0
  Report Time Step ......... 00:01:00
  Wet Time Step ............ 00:01:00
  Dry Time Step ............ 00:01:00
  Routing Time Step ........ 5.00 sec
  Variable Time Step ....... YES
  Maximum Trials ........... 8
  Number of Threads ........ 1
  Head Tolerance ........... 0.001500 m
  
  
  **************************        Volume         Depth
  Runoff Quantity Continuity     hectare-m            mm
  **************************     ---------       -------
  Total Precipitation ......         3.479        10.524
  Evaporation Loss .........         0.000         0.000
  Infiltration Loss ........         1.863         5.634
  Surface Runoff ...........         0.772         2.336
  Final Storage ............         0.846         2.558
  Continuity Error (%) .....        -0.037
  
  
  **************************           COD         NH3-N            TN            TP            SS
  Runoff Quality Continuity             kg            kg            kg            kg            kg
  **************************    ----------    ----------    ----------    ----------    ----------
  Initial Buildup ..........     15404.640         0.000         0.000         0.000         0.000
  Surface Buildup ..........       130.323         0.000         0.000         0.000         0.000
  Wet Deposition ...........         0.000         0.000         0.000         0.000         0.000
  Sweeping Removal .........         0.000         0.000         0.000         0.000         0.000
  Infiltration Loss ........       121.608         0.000         0.000         0.000         0.000
  BMP Removal ..............         0.000         0.000         0.000         0.000         0.000
  Surface Runoff ...........       714.239         0.000         0.000         0.000         0.000
  Remaining Buildup ........     14698.515         0.000         0.000         0.000         0.000
  Continuity Error (%) .....         0.004         0.000         0.000         0.000         0.000
  
  
  **************************        Volume        Volume
  Flow Routing Continuity        hectare-m      10^6 ltr
  **************************     ---------     ---------
  Dry Weather Inflow .......         0.000         0.000
  Wet Weather Inflow .......         0.771         7.708
  Groundwater Inflow .......         0.000         0.000
  RDII Inflow ..............         0.000         0.000
  External Inflow ..........         0.621         6.206
  External Outflow .........         1.327        13.267
  Flooding Loss ............         0.000         0.000
  Evaporation Loss .........         0.000         0.000
  Exfiltration Loss ........         0.000         0.000
  Initial Stored Volume ....         0.000         0.000
  Final Stored Volume ......         0.085         0.851
  Continuity Error (%) .....        -1.461
  
  
  **************************           COD         NH3-N            TN            TP            SS
  Quality Routing Continuity            kg            kg            kg            kg            kg
  **************************    ----------    ----------    ----------    ----------    ----------
  Dry Weather Inflow .......         0.000         0.000         0.000         0.000         0.000
  Wet Weather Inflow .......       713.264         0.000         0.000         0.000         0.000
  Groundwater Inflow .......         0.000         0.000         0.000         0.000         0.000
  RDII Inflow ..............         0.000         0.000         0.000         0.000         0.000
  External Inflow ..........      1036.427         0.000         0.000         0.000         0.000
  External Outflow .........      1611.987         0.000         0.000         0.000         0.000
  Flooding Loss ............         0.000         0.000         0.000         0.000         0.000
  Exfiltration Loss ........         0.000         0.000         0.000         0.000         0.000
  Mass Reacted .............         0.000         0.000         0.000         0.000         0.000
  Initial Stored Mass ......         0.000         0.000         0.000         0.000         0.000
  Final Stored Mass ........        82.884         0.000         0.000         0.000         0.000
  Continuity Error (%) .....         3.133         0.000         0.000         0.000         0.000
  
  
  *************************
  Highest Continuity Errors
  *************************
  Node WS02003123 (2.35%)
  Node WS02003099 (1.08%)
  
  
  ***************************
  Time-Step Critical Elements
  ***************************
  Link outletpipe (93.33%)
  Link WSL2448 (5.07%)
  
  
  ********************************
  Highest Flow Instability Indexes
  ********************************
  Link WSL1477 (37)
  Link WSL1516 (35)
  Link WSL84 (9)
  Link WSL1515 (6)
  Link WSL2867 (5)
  
  
  *************************
  Routing Time Step Summary
  *************************
  Minimum Time Step           :     0.25 sec
  Average Time Step           :     0.70 sec
  Maximum Time Step           :     5.00 sec
  Percent in Steady State     :     0.00
  Average Iterations per Step :     2.17
  Percent Not Converging      :     2.52
  
  
  ***************************
  Subcatchment Runoff Summary
  ***************************
  
  --------------------------------------------------------------------------------------------------------
                            Total      Total      Total      Total      Total       Total     Peak  Runoff
                           Precip      Runon       Evap      Infil     Runoff      Runoff   Runoff   Coeff
  Subcatchment                 mm         mm         mm         mm         mm    10^6 ltr      MLD
  --------------------------------------------------------------------------------------------------------
  1                         10.52       9.06       0.00       7.78       7.47        0.09     1.16   0.381
  2                         10.52       0.00       0.00       6.42       2.91        0.10     1.73   0.277
  3                         10.52       0.00       0.00       6.44       2.81        0.14     2.46   0.267
  4                         10.52       0.00       0.00       6.41       2.97        0.08     1.41   0.283
  5                         10.52       7.26       0.00       7.66       6.39        0.11     1.54   0.359
  6                         10.52       0.00       0.00       6.44       2.81        0.14     2.40   0.267
  7                         10.52       0.00       0.00       4.53       2.64        4.22    54.44   0.250
  8                         10.52       0.00       0.00       6.43       2.85        0.12     2.11   0.271
  9                         10.52       2.80       0.00       6.99       3.91        0.15     2.34   0.294
  10                        10.52       5.29       0.00       7.27       5.22        0.10     1.35   0.330
  11                        10.52       0.00       0.00       6.40       3.05        0.06     1.09   0.290
  13                        10.52      51.32       0.00       9.91      42.51        0.07     0.97   0.687
  14                        10.52      48.85       0.00      10.21      41.20        0.08     1.10   0.694
  16                        10.52      10.10       0.00       7.53       8.07        0.05     0.67   0.391
  17                        10.52       0.00       0.00       6.43       2.89        0.11     1.86   0.275
  18                        10.52       0.00       0.00       6.44       2.85        0.12     2.15   0.271
  19                        10.52       0.00       0.00       6.41       2.99        0.08     1.35   0.284
  20                        10.52       2.70       0.00       6.95       4.01        0.11     1.80   0.303
  21                        10.52       7.37       0.00       7.62       6.46        0.10     1.35   0.361
  22                        10.52       5.51       0.00       7.41       5.53        0.10     1.47   0.345
  23                        10.52       0.00       0.00       6.32       3.37        0.02     0.43   0.320
  24                        10.52       0.00       0.00       6.40       3.03        0.07     1.19   0.288
  25                        10.52       0.00       0.00       6.36       3.21        0.04     0.67   0.305
  26                        10.52       0.00       0.00       6.40       3.05        0.06     1.10   0.290
  27                        10.52       0.00       0.00       6.40       3.06        0.06     1.08   0.291
  28                        10.52       8.43       0.00       7.82       6.41        0.17     2.23   0.338
  29                        10.52       3.52       0.00       7.01       4.31        0.10     1.54   0.307
  30                        10.52      11.05       0.00       8.09       9.15        0.09     1.13   0.424
  31                        10.52       0.00       0.00       6.43       2.90        0.10     1.81   0.275
  32                        10.52       0.00       0.00       6.44       2.81        0.14     2.47   0.267
  33                        10.52       0.00       0.00       6.34       3.30        0.03     0.53   0.313
  34                        10.52       6.17       0.00       7.53       5.72        0.12     1.74   0.343
  35                        10.52       0.00       0.00       6.42       2.94        0.09     1.58   0.279
  36                        10.52       5.56       0.00       7.50       4.72        0.28     4.05   0.294
  37                        10.52       0.00       0.00       6.44       2.84        0.13     2.22   0.270
  38                        10.52       0.00       0.00       6.42       2.95        0.09     1.53   0.280
  39                        10.52       0.00       0.00       6.42       2.91        0.10     1.75   0.276
  40                        10.52       1.52       0.00       6.75       3.42        0.13     2.21   0.284
  41                        10.52       0.00       0.00       6.40       3.06        0.06     1.07   0.291
  42                        10.52       0.00       0.00       6.40       3.02        0.07     1.23   0.287
  43                        10.52       0.00       0.00       6.26       3.60        0.01     0.24   0.342
  44                        10.52      78.61       0.00      12.11      63.40        0.23     3.18   0.711
  45                        10.52       0.00       0.00       6.35       3.25        0.03     0.61   0.308
  46                        10.52       4.57       0.00       7.25       4.93        0.11     1.60   0.327
  47                        10.52       0.00       0.00       6.36       3.22        0.04     0.65   0.306
  48                        10.52       2.26       0.00       6.83       4.08        0.06     1.06   0.319
  49                        10.52       0.00       0.00       6.40       3.03        0.07     1.17   0.288
  50                        10.52       3.68       0.00       7.09       4.66        0.08     1.29   0.328
  51                        10.52       3.04       0.00       6.99       4.28        0.09     1.46   0.315
  52                        10.52       0.00       0.00       6.40       3.03        0.07     1.17   0.288
  53                        10.52       1.56       0.00       6.71       3.73        0.07     1.11   0.309
  54                        10.52       0.00       0.00       6.34       3.31        0.03     0.50   0.315
  55                        10.52       3.35       0.00       6.95       4.95        0.04     0.65   0.357
  56                        10.52       5.06       0.00       7.32       5.13        0.11     1.62   0.330
  57                        10.52       0.00       0.00       6.44       2.81        0.14     2.42   0.267
  58                        10.52       0.00       0.00       6.35       3.24        0.03     0.62   0.308
  59                        10.52       0.00       0.00       6.34       3.31        0.03     0.51   0.314
  60                        10.52       7.38       0.00       7.48       7.62        0.04     0.56   0.426
  61                        10.52       0.00       0.00       6.48       2.49        0.45     6.99   0.236
  62                        10.52       0.00       0.00       6.48       2.47        0.47     7.30   0.235
  63                        10.52       0.00       0.00       6.35       3.26        0.03     0.58   0.310
  64                        10.52       0.00       0.00       6.36       3.20        0.04     0.70   0.304
  65                        10.52       0.00       0.00       6.39       3.09        0.05     0.97   0.294
  
  
  ****************************
  Subcatchment Washoff Summary
  ****************************
  
  ------------------------------------------------------------------------------------------
                                 COD         NH3-N            TN            TP            SS
  Subcatchment                    kg            kg            kg            kg            kg
  ------------------------------------------------------------------------------------------
  1                            7.585         0.000         0.000         0.000         0.000
  2                            0.000         0.000         0.000         0.000         0.000
  3                            0.000         0.000         0.000         0.000         0.000
  4                            7.361         0.000         0.000         0.000         0.000
  5                           21.330         0.000         0.000         0.000         0.000
  6                           12.219         0.000         0.000         0.000         0.000
  7                          317.207         0.000         0.000         0.000         0.000
  8                           10.789         0.000         0.000         0.000         0.000
  9                           19.490         0.000         0.000         0.000         0.000
  10                          19.371         0.000         0.000         0.000         0.000
  11                           5.771         0.000         0.000         0.000         0.000
  13                          24.163         0.000         0.000         0.000         0.000
  14                          22.431         0.000         0.000         0.000         0.000
  16                          19.390         0.000         0.000         0.000         0.000
  17                           9.588         0.000         0.000         0.000         0.000
  18                          10.996         0.000         0.000         0.000         0.000
  19                           7.063         0.000         0.000         0.000         0.000
  20                          15.065         0.000         0.000         0.000         0.000
  21                          20.983         0.000         0.000         0.000         0.000
  22                          17.566         0.000         0.000         0.000         0.000
  23                           2.451         0.000         0.000         0.000         0.000
  24                           6.272         0.000         0.000         0.000         0.000
  25                           3.660         0.000         0.000         0.000         0.000
  26                           5.820         0.000         0.000         0.000         0.000
  27                           5.699         0.000         0.000         0.000         0.000
  28                          39.264         0.000         0.000         0.000         0.000
  29                          18.120         0.000         0.000         0.000         0.000
  30                          20.862         0.000         0.000         0.000         0.000
  31                           9.331         0.000         0.000         0.000         0.000
  32                          12.579         0.000         0.000         0.000         0.000
  33                           2.930         0.000         0.000         0.000         0.000
  34                          21.745         0.000         0.000         0.000         0.000
  35                           8.193         0.000         0.000         0.000         0.000
  36                          47.663         0.000         0.000         0.000         0.000
  37                          11.325         0.000         0.000         0.000         0.000
  38                           7.970         0.000         0.000         0.000         0.000
  39                           9.028         0.000         0.000         0.000         0.000
  40                          15.289         0.000         0.000         0.000         0.000
  41                           5.675         0.000         0.000         0.000         0.000
  42                           6.483         0.000         0.000         0.000         0.000
  43                           1.426         0.000         0.000         0.000         0.000
  44                          54.177         0.000         0.000         0.000         0.000
  45                           3.367         0.000         0.000         0.000         0.000
  46                          17.971         0.000         0.000         0.000         0.000
  47                           3.580         0.000         0.000         0.000         0.000
  48                           8.731         0.000         0.000         0.000         0.000
  49                           6.177         0.000         0.000         0.000         0.000
  50                          12.662         0.000         0.000         0.000         0.000
  51                          13.040         0.000         0.000         0.000         0.000
  52                           6.177         0.000         0.000         0.000         0.000
  53                           8.113         0.000         0.000         0.000         0.000
  54                           2.819         0.000         0.000         0.000         0.000
  55                           6.571         0.000         0.000         0.000         0.000
  56                          19.912         0.000         0.000         0.000         0.000
  57                          12.339         0.000         0.000         0.000         0.000
  58                           3.393         0.000         0.000         0.000         0.000
  59                           2.847         0.000         0.000         0.000         0.000
  60                           8.802         0.000         0.000         0.000         0.000
  61                          34.032         0.000         0.000         0.000         0.000
  62                          35.467         0.000         0.000         0.000         0.000
  63                           3.204         0.000         0.000         0.000         0.000
  64                           3.818         0.000         0.000         0.000         0.000
  65                           5.163         0.000         0.000         0.000         0.000
  ------------------------------------------------------------------------------------------
  System                    1102.520         0.000         0.000         0.000         0.000
  
  
  ******************
  Node Depth Summary
  ******************
  
  ---------------------------------------------------------------------------------
                                 Average  Maximum  Maximum  Time of Max    Reported
                                   Depth    Depth      HGL   Occurrence   Max Depth
  Node                 Type       Meters   Meters   Meters  days hr:min      Meters
  ---------------------------------------------------------------------------------
  WS01000070           JUNCTION     0.00     0.00     0.00     0  00:00        0.00
  WS01000323           JUNCTION     0.00     0.00     0.00     0  00:00        0.00
  WS01000533           JUNCTION     0.00     0.00     6.86     0  00:00        0.00
  WS01005172           JUNCTION     0.00     0.00     0.00     0  00:00        0.00
  WS01005181           JUNCTION     0.00     0.00     0.00     0  00:00        0.00
  WS01009841           JUNCTION     0.00     0.00     0.00     0  00:00        0.00
  WS02000078           JUNCTION     0.00     0.00     0.00     0  00:00        0.00
  WS02000112           JUNCTION     0.00     0.00     0.00     0  00:00        0.00
  WS02000136           JUNCTION     0.00     0.00     0.00     0  00:00        0.00
  WS02001211           JUNCTION     0.34     0.48     5.32     0  02:47        0.48
  WS02001212           JUNCTION     0.28     0.45     5.25     0  02:46        0.45
  WS02001213           JUNCTION     0.38     0.56     5.26     0  02:45        0.56
  WS02003059           JUNCTION     0.36     0.58     5.23     0  02:45        0.58
  WS02003060           JUNCTION     0.44     0.68     5.23     0  02:44        0.67
  WS02003066           JUNCTION     0.19     0.34     5.64     0  02:43        0.32
  WS02003067           JUNCTION     0.32     0.55     5.87     0  02:43        0.54
  WS02003071           JUNCTION     0.50     0.74     5.14     0  02:45        0.74
  WS02003072           JUNCTION     0.42     0.64     5.01     0  02:45        0.64
  WS02003073           JUNCTION     0.52     0.74     4.98     0  02:46        0.74
  WS02003076           JUNCTION     0.48     0.71     4.94     0  02:46        0.70
  WS02003077           JUNCTION     0.12     0.17     5.18     0  02:17        0.17
  WS02003078           JUNCTION     0.04     0.05     6.95     0  02:07        0.05
  WS02003079           JUNCTION     0.11     0.16     7.07     0  02:07        0.16
  WS02003080           JUNCTION     0.22     0.30     5.33     0  02:19        0.30
  WS02003081           JUNCTION     0.27     0.38     5.42     0  02:19        0.38
  WS02003082           JUNCTION     0.27     0.38     5.46     0  02:18        0.38
  WS02003083           JUNCTION     0.30     0.43     5.52     0  02:18        0.43
  WS02003084           JUNCTION     0.31     0.44     5.54     0  02:18        0.44
  WS02003085           JUNCTION     0.25     0.38     5.55     0  02:18        0.38
  WS02003086           JUNCTION     0.26     0.39     5.59     0  02:17        0.39
  WS02003087           JUNCTION     0.28     0.41     5.63     0  02:17        0.41
  WS02003088           JUNCTION     0.24     0.37     5.66     0  02:16        0.37
  WS02003089           JUNCTION     0.18     0.28     5.74     0  02:16        0.27
  WS02003090           JUNCTION     0.22     0.33     5.80     0  02:15        0.32
  WS02003091           JUNCTION     0.13     0.20     6.00     0  02:14        0.20
  WS02003092           JUNCTION     0.01     0.01     7.65     0  01:24        0.01
  WS02003093           JUNCTION     0.02     0.02     7.36     0  02:03        0.02
  WS02003094           JUNCTION     0.11     0.14     7.36     0  02:04        0.14
  WS02003098           JUNCTION     0.06     0.09     7.26     0  02:05        0.09
  WS02003099           JUNCTION     0.13     0.18     7.22     0  02:06        0.18
  WS02003102           JUNCTION     0.11     0.17     7.20     0  02:04        0.17
  WS02003103           JUNCTION     0.13     0.19     7.16     0  02:06        0.19
  WS02003104           JUNCTION     0.13     0.18     7.14     0  02:06        0.18
  WS02003106           JUNCTION     0.13     0.18     7.11     0  02:07        0.18
  WS02003110           JUNCTION     0.13     0.18     7.43     0  02:05        0.18
  WS02003111           JUNCTION     0.12     0.18     7.27     0  02:05        0.18
  WS02003115           JUNCTION     0.15     0.22     7.12     0  02:06        0.22
  WS02003116           JUNCTION     0.18     0.26     6.97     0  02:06        0.26
  WS02003118           JUNCTION     0.16     0.23     6.85     0  02:06        0.23
  WS02003122           JUNCTION     0.24     0.38     6.75     0  02:11        0.38
  WS02003123           JUNCTION     0.17     0.31     6.75     0  02:11        0.31
  WS02003126           JUNCTION     0.10     0.23     6.75     0  02:11        0.23
  WS02003187           JUNCTION     0.26     0.40     6.73     0  02:11        0.40
  WS02003188           JUNCTION     0.31     0.45     6.71     0  02:11        0.45
  WS02003190           JUNCTION     0.31     0.44     6.69     0  02:11        0.44
  WS02003193           JUNCTION     0.30     0.43     6.67     0  02:12        0.43
  WS02003195           JUNCTION     0.29     0.41     6.63     0  02:12        0.41
  WS02003196           JUNCTION     0.30     0.43     6.61     0  02:13        0.43
  WS02003198           JUNCTION     0.29     0.40     6.57     0  02:13        0.40
  WS02003200           JUNCTION     0.20     0.28     6.44     0  02:12        0.28
  WS02003201           JUNCTION     0.19     0.28     6.42     0  02:12        0.28
  WS02003202           JUNCTION     0.20     0.30     6.36     0  02:12        0.30
  WS02003203           JUNCTION     0.13     0.19     6.19     0  02:15        0.19
  WS02003215           JUNCTION     0.14     0.20     7.06     0  02:05        0.20
  WS02004050           JUNCTION     0.32     0.47     4.69     0  02:46        0.46
  WS02004053           JUNCTION     0.00     0.00     0.00     0  00:00        0.00
  WS02004136           JUNCTION     0.13     0.18     6.91     0  01:00        0.18
  WS02004139           JUNCTION     0.27     0.38     5.34     0  02:48        0.38
  WS02004401           JUNCTION     0.33     0.60     6.60     0  02:39        0.60
  WS02004402           JUNCTION     0.34     0.61     6.57     0  02:39        0.61
  WS02004403           JUNCTION     0.33     0.60     6.53     0  02:39        0.60
  WS02004404           JUNCTION     0.41     0.68     6.53     0  02:40        0.68
  WS02004405           JUNCTION     0.41     0.68     6.52     0  02:40        0.68
  WS02004406           JUNCTION     0.39     0.64     6.47     0  02:40        0.64
  WS02004407           JUNCTION     0.37     0.60     6.40     0  02:40        0.60
  WS02004409           JUNCTION     0.36     0.58     6.35     0  02:41        0.58
  WS02004410           JUNCTION     0.35     0.55     6.27     0  02:41        0.55
  WS02004411           JUNCTION     0.32     0.51     6.19     0  02:41        0.51
  WS02004412           JUNCTION     0.27     0.45     6.09     0  02:41        0.45
  WS02004413           JUNCTION     0.28     0.47     5.94     0  02:43        0.47
  WS02004997           JUNCTION     6.05     6.40     8.01     0  03:00        6.34
  WS02005122           JUNCTION     0.07     0.10     9.62     0  02:00        0.10
  WS02005123           JUNCTION     0.06     0.09     9.55     0  02:00        0.09
  WS02005124           JUNCTION     0.06     0.08     9.35     0  02:00        0.08
  WS02005126           JUNCTION     0.10     0.14     9.24     0  02:00        0.14
  WS02005127           JUNCTION     0.09     0.13     9.16     0  02:00        0.13
  WS02005129           JUNCTION     0.09     0.13     9.06     0  02:00        0.13
  WS02005131           JUNCTION     0.10     0.15     8.91     0  02:01        0.15
  WS02005132           JUNCTION     0.13     0.19     8.83     0  02:02        0.19
  WS02005133           JUNCTION     0.13     0.18     8.79     0  02:02        0.18
  WS02005135           JUNCTION     0.11     0.17     8.73     0  02:02        0.17
  WS02005137           JUNCTION     0.15     0.21     8.63     0  02:03        0.21
  WS02005138           JUNCTION     0.15     0.22     8.57     0  02:03        0.22
  WS02005140           JUNCTION     0.12     0.17     8.49     0  02:04        0.17
  WS02005142           JUNCTION     0.15     0.22     8.38     0  02:03        0.22
  WS02005144           JUNCTION     0.14     0.21     8.26     0  02:04        0.21
  WS02005145           JUNCTION     0.18     0.25     8.15     0  02:04        0.25
  WS02005147           JUNCTION     0.14     0.20     8.07     0  02:05        0.20
  WS02005152           JUNCTION     0.15     0.22     7.94     0  02:05        0.22
  WS02005154           JUNCTION     0.11     0.16     7.80     0  02:05        0.16
  WS02005155           JUNCTION     0.16     0.23     7.54     0  02:05        0.23
  WS02005162           JUNCTION     0.13     0.28     8.28     0  02:34        0.28
  WS02005163           JUNCTION     0.13     0.24     8.28     0  02:34        0.24
  WS02005164           JUNCTION     0.13     0.21     8.29     0  02:35        0.21
  WS02005165           JUNCTION     0.10     0.13     8.31     0  02:01        0.13
  WS02005166           JUNCTION     0.10     0.13     8.40     0  02:00        0.13
  WS02005167           JUNCTION     0.12     0.16     8.46     0  02:00        0.16
  WS02005170           JUNCTION     0.08     0.11     8.51     0  02:01        0.11
  WS02005171           JUNCTION     0.09     0.12     8.59     0  02:00        0.12
  WS02005175           JUNCTION     0.09     0.12     8.69     0  02:00        0.12
  WS02005176           JUNCTION     0.08     0.11     8.73     0  02:00        0.11
  WS02005180           JUNCTION     0.09     0.12     8.77     0  02:00        0.12
  WS02005181           JUNCTION     0.08     0.10     8.80     0  02:00        0.10
  WS02005183           JUNCTION     0.05     0.07     8.93     0  02:00        0.07
  WS02005184           JUNCTION     0.06     0.09     9.00     0  01:59        0.09
  WS02005185           JUNCTION     0.05     0.07     9.09     0  01:59        0.07
  WS02005186           JUNCTION     0.05     0.07     9.18     0  01:59        0.07
  WS02005188           JUNCTION     0.14     0.33     8.27     0  02:34        0.33
  WS02005191           JUNCTION     0.17     0.37     8.27     0  02:34        0.37
  WS02005192           JUNCTION     0.19     0.39     8.26     0  02:34        0.39
  WS02005193           JUNCTION     0.19     0.44     8.26     0  02:34        0.44
  WS02005196           JUNCTION     0.19     0.41     8.26     0  02:34        0.41
  WS02006109           JUNCTION     0.39     0.68     7.30     0  02:37        0.68
  WS02006110           JUNCTION     0.36     0.61     7.21     0  02:37        0.61
  WS02006111           JUNCTION     0.19     0.36     6.94     0  02:38        0.36
  WS02006112           JUNCTION     0.36     0.62     6.74     0  02:38        0.62
  WS02006113           JUNCTION     0.30     0.51     7.10     0  02:37        0.51
  WS02006115           JUNCTION     0.32     0.58     6.68     0  02:38        0.58
  WS02006116           JUNCTION     0.34     0.60     6.64     0  02:39        0.60
  WS02006183           JUNCTION     0.00     0.00     0.00     0  00:00        0.00
  WS02006228           JUNCTION     0.39     0.72     7.37     0  02:36        0.72
  WS02006229           JUNCTION     0.36     0.70     7.39     0  02:36        0.70
  WS02006230           JUNCTION     0.35     0.75     7.50     0  02:36        0.74
  WS02006231           JUNCTION     0.27     0.70     7.60     0  02:36        0.68
  WS02006232           JUNCTION     0.26     0.62     7.65     0  02:36        0.62
  WS02006234           JUNCTION     0.26     0.58     7.74     0  02:35        0.57
  WS02006235           JUNCTION     0.30     0.65     7.82     0  02:35        0.65
  WS02006238           JUNCTION     0.31     0.68     7.86     0  02:35        0.66
  WS02006239           JUNCTION     0.31     1.42     8.63     0  02:34        0.69
  WS02006242           JUNCTION     0.31     0.72     8.02     0  02:34        0.71
  WS02006240           JUNCTION     0.26     0.68     7.97     0  02:35        0.67
  WS02006243           JUNCTION     0.23     0.64     8.06     0  02:34        0.61
  WS02006245           JUNCTION     0.24     0.60     8.09     0  02:34        0.59
  WS02006247           JUNCTION     0.26     0.62     8.13     0  02:34        0.61
  WS02006248           JUNCTION     0.21     0.55     8.14     0  02:34        0.55
  WS02006249           JUNCTION     0.24     0.58     8.18     0  02:34        0.57
  WS02006251           JUNCTION     0.23     0.57     8.24     0  02:34        0.57
  WS02006253           JUNCTION     0.17     0.46     8.26     0  02:34        0.46
  WS02618401           JUNCTION     0.00     0.00     0.00     0  00:00        0.00
  WS8802               JUNCTION     0.00     0.00     4.38     0  00:00        0.00
  WSA1649              JUNCTION     0.00     0.00     0.00     0  00:00        0.00
  WSF200               JUNCTION     0.18     0.33     5.43     0  02:43        0.30
  XR-Inflow            JUNCTION     5.90     6.31     8.12     0  03:00        6.23
  WS02004114           JUNCTION     6.01     6.31     7.91     0  03:00        6.30
  outfall-24           OUTFALL      0.11     0.15     5.65     0  02:10        0.15
  outfall-2            OUTFALL      0.00     0.00     7.00     0  00:00        0.00
  outfall-5            OUTFALL      0.00     0.00     7.67     0  00:00        0.00
  outfall-8            OUTFALL      0.00     0.00     8.00     0  00:00        0.00
  outfall-14           OUTFALL      0.00     0.00     7.66     0  00:00        0.00
  outfall-16           OUTFALL      0.00     0.00     8.39     0  00:00        0.00
  outfall-17           OUTFALL      0.00     0.00     8.15     0  00:00        0.00
  outfall-27           OUTFALL      0.01     0.11     8.01     0  02:15        0.11
  outfall-28           OUTFALL      0.00     0.08     7.38     0  02:13        0.08
  67                   OUTFALL      0.00     0.00    10.20     0  00:00        0.00
  12                   OUTFALL      0.32     0.46     0.46     0  02:46        0.46
  XR-storage           STORAGE      7.08     7.38     7.88     0  02:10        7.38
  CC-storage           STORAGE      1.71     5.24     8.42     0  02:15        5.24
  JK-storage           STORAGE      1.33     4.48     7.48     0  02:12        4.48
  
  
  *******************
  Node Inflow Summary
  *******************
  
  -------------------------------------------------------------------------------------------------
                                  Maximum  Maximum                  Lateral       Total        Flow
                                  Lateral    Total  Time of Max      Inflow      Inflow     Balance
                                   Inflow   Inflow   Occurrence      Volume      Volume       Error
  Node                 Type           MLD      MLD  days hr:min    10^6 ltr    10^6 ltr     Percent
  -------------------------------------------------------------------------------------------------
  WS01000070           JUNCTION      0.00     0.00     0  00:00           0           0       0.000 ltr
  WS01000323           JUNCTION      0.00     0.00     0  00:00           0           0       0.000 ltr
  WS01000533           JUNCTION      0.00     0.00     0  00:00           0           0       0.000 ltr
  WS01005172           JUNCTION      0.00     0.00     0  00:00           0           0       0.000 ltr
  WS01005181           JUNCTION      0.00     0.00     0  00:00           0           0       0.000 ltr
  WS01009841           JUNCTION      0.00     0.00     0  00:00           0           0       0.000 ltr
  WS02000078           JUNCTION      0.00     0.00     0  00:00           0           0       0.000 ltr
  WS02000112           JUNCTION      0.00     0.00     0  00:00           0           0       0.000 ltr
  WS02000136           JUNCTION      0.00     0.00     0  00:00           0           0       0.000 ltr
  WS02001211           JUNCTION      0.25    33.74     0  02:41      0.0407        3.65       0.705
  WS02001212           JUNCTION      0.21    34.21     0  02:56      0.0346        3.66       0.400
  WS02001213           JUNCTION      0.30    35.30     0  02:46      0.0489         3.7       0.546
  WS02003059           JUNCTION      0.23    35.73     0  02:55      0.0378        3.72       0.646
  WS02003060           JUNCTION      0.16   106.56     0  02:43      0.0252        7.53       0.481
  WS02003066           JUNCTION      0.08    81.44     0  02:43      0.0122        3.79       0.106
  WS02003067           JUNCTION      0.26    65.69     0  02:42      0.0395        3.79       0.171
  WS02003071           JUNCTION      0.35   101.58     0  02:44      0.0538        7.54       0.511
  WS02003072           JUNCTION      0.24   101.06     0  02:45      0.0382        7.54       0.328
  WS02003073           JUNCTION      0.07   118.07     0  02:45     0.00978        9.02       0.288
  WS02003076           JUNCTION      0.72   119.77     0  02:46        0.12        9.12       0.253
  WS02003077           JUNCTION      0.04    20.91     0  02:17      0.0059         1.5       0.124
  WS02003078           JUNCTION      0.03     5.50     0  02:07     0.00419       0.322       0.002
  WS02003079           JUNCTION      0.04     4.72     0  02:07     0.00561       0.318       0.196
  WS02003080           JUNCTION      0.08    16.27     0  02:19      0.0113        1.18       0.299
  WS02003081           JUNCTION      0.03    16.23     0  02:19     0.00406        1.17       0.398
  WS02003082           JUNCTION      0.05    16.25     0  02:18     0.00692        1.17       0.381
  WS02003083           JUNCTION      0.02    16.26     0  02:18      0.0027        1.17       0.390
  WS02003084           JUNCTION      0.06    16.23     0  02:18     0.00885        1.17       0.266
  WS02003085           JUNCTION      0.02    16.26     0  02:17     0.00307        1.17       0.204
  WS02003086           JUNCTION      0.04    16.35     0  02:14     0.00599        1.17       0.291
  WS02003087           JUNCTION      0.06    16.49     0  02:14     0.00824        1.16       0.324
  WS02003088           JUNCTION      0.07    16.68     0  02:16      0.0105        1.16       0.253
  WS02003089           JUNCTION      0.08    17.52     0  02:16      0.0113        1.15       0.159
  WS02003090           JUNCTION      0.04    16.87     0  02:15     0.00647        1.14       0.164
  WS02003091           JUNCTION      0.01    16.66     0  02:12     0.00171        1.13       0.065
  WS02003092           JUNCTION      0.07     0.07     0  01:00     0.00989     0.00989       0.391
  WS02003093           JUNCTION      0.02     0.09     0  01:23     0.00306      0.0129       0.994
  WS02003094           JUNCTION      2.39     2.48     0  02:00       0.157        0.17       0.894
  WS02003098           JUNCTION      0.02     2.48     0  02:05     0.00293       0.172       0.495
  WS02003099           JUNCTION      0.07     2.54     0  02:05      0.0109       0.182       1.088
  WS02003102           JUNCTION      2.13     4.63     0  02:03       0.125       0.305       0.488
  WS02003103           JUNCTION      0.02     4.64     0  02:04     0.00239       0.306       0.369
  WS02003104           JUNCTION      0.02     4.65     0  02:05     0.00302       0.308       0.307
  WS02003106           JUNCTION      0.05     4.69     0  02:06     0.00727       0.314       0.393
  WS02003110           JUNCTION      0.06    11.45     0  02:05     0.00906       0.751       0.096
  WS02003111           JUNCTION      0.02    11.05     0  02:05      0.0029       0.753       0.087
  WS02003115           JUNCTION      0.51    11.48     0  02:05      0.0346       0.787       0.087
  WS02003116           JUNCTION      0.08    11.60     0  02:06      0.0118       0.807       0.183
  WS02003118           JUNCTION      1.25    12.78     0  02:06      0.0755       0.881       0.222
  WS02003122           JUNCTION      0.07    12.90     0  02:06      0.0101       0.907       0.331
  WS02003123           JUNCTION      0.06     0.36     0  01:19      0.0093      0.0189       2.402
  WS02003126           JUNCTION      0.03     0.11     0  01:57     0.00529     0.00601       0.587
  WS02003187           JUNCTION      0.06    12.83     0  02:09     0.00906       0.909       0.309
  WS02003188           JUNCTION      0.69    13.31     0  02:09      0.0582       0.965       0.484
  WS02003190           JUNCTION      0.06    13.34     0  02:10     0.00956        0.97       0.453
  WS02003193           JUNCTION      1.11    14.30     0  02:10      0.0633        1.03       0.446
  WS02003195           JUNCTION      0.03    14.31     0  02:11      0.0053        1.03       0.455
  WS02003196           JUNCTION      0.02    14.32     0  02:12     0.00301        1.03       0.481
  WS02003198           JUNCTION      1.37    15.63     0  02:12      0.0999        1.12       0.553
  WS02003200           JUNCTION      0.07    15.73     0  02:14      0.0107        1.13       0.242
  WS02003201           JUNCTION      0.01    15.87     0  02:13     0.00183        1.13       0.093
  WS02003202           JUNCTION      0.02    15.90     0  02:13      0.0031        1.13       0.198
  WS02003203           JUNCTION      0.05    17.58     0  02:12     0.00692        1.13       0.060
  WS02003215           JUNCTION      0.06    11.53     0  02:06     0.00945       0.796       0.075
  WS02004050           JUNCTION      0.72   142.41     0  02:46       0.119        9.21       0.584
  WS02004053           JUNCTION      0.00     0.00     0  00:00           0           0       0.000 ltr
  WS02004136           JUNCTION      0.44    32.92     0  01:00      0.0703        3.57       0.078
  WS02004139           JUNCTION      0.38    33.30     0  01:00      0.0619        3.63       0.482
  WS02004401           JUNCTION      0.05    58.31     0  02:39     0.00897        3.06       0.206
  WS02004402           JUNCTION      0.22    58.47     0  02:39      0.0335        3.09       0.188
  WS02004403           JUNCTION      0.23    58.52     0  02:39      0.0349        3.12       0.158
  WS02004404           JUNCTION      0.24    58.70     0  02:40      0.0365        3.15       0.159
  WS02004405           JUNCTION      1.48    59.59     0  02:40      0.0906        3.23       0.232
  WS02004406           JUNCTION      2.36    61.67     0  02:40        0.19        3.42       0.330
  WS02004407           JUNCTION      0.11    61.64     0  02:40      0.0171        3.42       0.295
  WS02004409           JUNCTION      1.74    63.21     0  02:41       0.143        3.56       0.252
  WS02004410           JUNCTION      0.15    63.27     0  02:41      0.0226        3.57       0.258
  WS02004411           JUNCTION      0.25    63.57     0  02:41      0.0379         3.6       0.224
  WS02004412           JUNCTION      2.49    65.28     0  02:41       0.154        3.74       0.175
  WS02004413           JUNCTION      0.11    65.38     0  02:42      0.0172        3.75       0.166
  WS02004997           JUNCTION      0.42    73.89     0  03:00      0.0693        7.59       0.525
  WS02005122           JUNCTION      1.52     1.52     0  02:00       0.101       0.101       0.124
  WS02005123           JUNCTION      0.06     1.58     0  02:00     0.00977        0.11       0.171
  WS02005124           JUNCTION      0.04     1.61     0  02:00     0.00611       0.116       0.256
  WS02005126           JUNCTION      1.35     2.96     0  02:00      0.0922       0.208       0.321
  WS02005127           JUNCTION      0.05     3.01     0  02:00     0.00848       0.216       0.282
  WS02005129           JUNCTION      1.57     4.57     0  02:00      0.0923       0.308       0.202
  WS02005131           JUNCTION      0.04     4.61     0  02:01     0.00682       0.314       0.272
  WS02005132           JUNCTION      0.05     4.66     0  02:01     0.00808       0.321       0.382
  WS02005133           JUNCTION      0.06     4.71     0  02:02        0.01        0.33       0.326
  WS02005135           JUNCTION      2.28     6.98     0  02:02       0.138       0.467       0.186
  WS02005137           JUNCTION      0.04     7.02     0  02:02     0.00625       0.472       0.283
  WS02005138           JUNCTION      0.06     7.07     0  02:03      0.0101       0.481       0.345
  WS02005140           JUNCTION      0.06     7.13     0  02:03        0.01       0.489       0.204
  WS02005142           JUNCTION      2.52     9.63     0  02:03       0.151       0.639       0.213
  WS02005144           JUNCTION      0.06     9.68     0  02:04     0.00927       0.647       0.209
  WS02005145           JUNCTION      0.04     9.72     0  02:04     0.00618       0.652       0.293
  WS02005147           JUNCTION      0.05     9.77     0  02:05     0.00749       0.658       0.186
  WS02005152           JUNCTION      0.06     9.82     0  02:05     0.00981       0.666       0.215
  WS02005154           JUNCTION      1.13    10.90     0  02:05      0.0688       0.734       0.120
  WS02005155           JUNCTION      0.06    10.96     0  02:05        0.01       0.743       0.151
  WS02005162           JUNCTION      0.08     5.15     0  02:37      0.0127       0.358       0.310
  WS02005163           JUNCTION      0.13     4.26     0  02:00        0.02       0.346       0.318
  WS02005164           JUNCTION      0.67     4.15     0  02:00      0.0411       0.327       0.314
  WS02005165           JUNCTION      0.11     3.52     0  02:00      0.0168       0.287       0.277
  WS02005166           JUNCTION      0.11     3.42     0  02:00      0.0167       0.271       0.291
  WS02005167           JUNCTION      0.64     3.32     0  02:00      0.0409       0.255       0.418
  WS02005170           JUNCTION      0.09     2.70     0  02:00       0.013       0.215       0.314
  WS02005171           JUNCTION      0.02     2.62     0  02:00     0.00326       0.202       0.330
  WS02005175           JUNCTION      0.99     2.60     0  02:00      0.0563         0.2       0.270
  WS02005176           JUNCTION      0.08     1.63     0  02:00      0.0123       0.144       0.407
  WS02005180           JUNCTION      0.11     1.56     0  02:00      0.0172       0.132       0.559
  WS02005181           JUNCTION      0.13     1.44     0  02:00      0.0203       0.116       0.416
  WS02005183           JUNCTION      0.03     1.31     0  01:59     0.00433      0.0956       0.237
  WS02005184           JUNCTION      0.09     1.28     0  01:59       0.013      0.0915       0.255
  WS02005185           JUNCTION      0.07     1.20     0  01:59      0.0111      0.0786       0.175
  WS02005186           JUNCTION      1.12     1.12     0  01:59      0.0676      0.0676       0.106
  WS02005188           JUNCTION      0.03     6.46     0  02:36     0.00497       0.361       0.214
  WS02005191           JUNCTION      0.06     7.24     0  02:36     0.00844       0.369       0.297
  WS02005192           JUNCTION      2.54    10.36     0  02:35       0.158       0.526       0.250
  WS02005193           JUNCTION      0.09    11.52     0  02:35      0.0146       0.557       0.208
  WS02005196           JUNCTION      0.12    10.55     0  02:35       0.019       0.544       0.238
  WS02006109           JUNCTION      0.08    56.21     0  02:36      0.0135         2.8       0.270
  WS02006110           JUNCTION      0.08    56.26     0  02:37      0.0132         2.8       0.257
  WS02006111           JUNCTION      0.24    58.21     0  02:38      0.0366           3       0.077
  WS02006112           JUNCTION      0.18    58.41     0  02:38      0.0273        3.02       0.222
  WS02006113           JUNCTION      2.63    58.07     0  02:37       0.169        2.97       0.187
  WS02006115           JUNCTION      0.08    58.34     0  02:38      0.0134        3.03       0.216
  WS02006116           JUNCTION      0.24    58.44     0  02:39       0.036        3.06       0.214
  WS02006183           JUNCTION      0.00     0.00     0  00:00           0           0       0.000 ltr
  WS02006228           JUNCTION      3.34    56.13     0  02:36       0.263        2.79       0.193
  WS02006229           JUNCTION      0.13    52.88     0  02:36        0.02        2.53       0.165
  WS02006230           JUNCTION      0.07    52.88     0  02:36      0.0116        2.52       0.162
  WS02006231           JUNCTION      0.13    53.69     0  02:36      0.0205        2.51       0.096
  WS02006232           JUNCTION      1.82    54.45     0  02:29       0.112        2.49       0.100
  WS02006234           JUNCTION      0.14    54.09     0  02:29      0.0216        2.38       0.104
  WS02006235           JUNCTION      0.14    57.38     0  02:35      0.0223        2.36       0.056
  WS02006238           JUNCTION      0.15    55.06     0  02:29      0.0235        2.34       0.116
  WS02006239           JUNCTION      0.11    39.07     0  02:35      0.0174        1.59       0.206
  WS02006242           JUNCTION      0.08    39.09     0  02:34      0.0129        1.56       0.227
  WS02006240           JUNCTION      0.06    38.00     0  02:34     0.00992        1.57       0.143
  WS02006243           JUNCTION      0.17    38.59     0  02:34      0.0269        1.55       0.130
  WS02006245           JUNCTION      0.07    38.72     0  02:34      0.0113        1.53       0.115
  WS02006247           JUNCTION      1.30    38.63     0  02:33       0.115        1.52       0.118
  WS02006248           JUNCTION      0.12    37.96     0  02:33      0.0192         1.4       0.077
  WS02006249           JUNCTION      0.19    38.29     0  02:34      0.0286        1.39       0.140
  WS02006251           JUNCTION      0.71    38.50     0  02:34      0.0508        1.36       0.125
  WS02006253           JUNCTION      0.11    38.24     0  02:34      0.0173        1.31       0.049
  WS02618401           JUNCTION      0.00     0.00     0  00:00           0           0       0.000 ltr
  WS8802               JUNCTION      0.00     0.00     0  00:00           0           0       0.000 ltr
  WSA1649              JUNCTION      0.00     0.00     0  00:00           0           0       0.000 ltr
  WSF200               JUNCTION      0.14    76.06     0  02:43      0.0216        3.81       0.061
  XR-Inflow            JUNCTION     73.48    73.48     0  03:00        7.55        7.55       0.319
  WS02004114           JUNCTION      0.57    74.43     0  03:00      0.0916        7.67       0.313
  outfall-24           OUTFALL       0.00    61.11     0  02:10           0        4.06       0.000
  outfall-2            OUTFALL       0.00     0.00     0  00:00           0           0       0.000 ltr
  outfall-5            OUTFALL       0.00     0.00     0  00:00           0           0       0.000 ltr
  outfall-8            OUTFALL       0.00     0.00     0  00:00           0           0       0.000 ltr
  outfall-14           OUTFALL       0.00     0.00     0  00:00           0           0       0.000 ltr
  outfall-16           OUTFALL       0.00     0.00     0  00:00           0           0       0.000 ltr
  outfall-17           OUTFALL       0.00     0.00     0  00:00           0           0       0.000 ltr
  outfall-27           OUTFALL       0.00     8.45     0  02:15           0       0.043       0.000
  outfall-28           OUTFALL       0.00     3.20     0  02:13           0     0.00486       0.000
  67                   OUTFALL       0.00     0.00     0  00:00           0           0       0.000 ltr
  12                   OUTFALL       0.00   119.33     0  02:46           0        9.16       0.000
  XR-storage           STORAGE       0.00    74.43     0  03:00           0        7.64       0.138
  CC-storage           STORAGE       8.68     8.68     0  02:00       0.735       0.735      -8.176
  JK-storage           STORAGE       8.30     8.30     0  02:08       0.646       0.646     -12.570
  
  
  **********************
  Node Surcharge Summary
  **********************
  
  Surcharging occurs when water rises above the top of the highest conduit.
  ---------------------------------------------------------------------
                                               Max. Height   Min. Depth
                                   Hours       Above Crown    Below Rim
  Node                 Type      Surcharged         Meters       Meters
  ---------------------------------------------------------------------
  WS01000070           JUNCTION        4.00          0.000        0.000
  WS01000323           JUNCTION        4.00          0.000        0.000
  WS01000533           JUNCTION        4.00          0.000        2.147
  WS01005172           JUNCTION        4.00          0.000        0.000
  WS01005181           JUNCTION        4.00          0.000        0.000
  WS01009841           JUNCTION        4.00          0.000        0.000
  WS02000078           JUNCTION        4.00          0.000        0.000
  WS02000112           JUNCTION        4.00          0.000        0.000
  WS02000136           JUNCTION        4.00          0.000        0.000
  WS02004053           JUNCTION        4.00          0.000        0.000
  WS02004997           JUNCTION        3.36          5.499        0.501
  WS02006183           JUNCTION        4.00          0.000        0.000
  WS02006231           JUNCTION        0.01          0.001        1.542
  WS02006239           JUNCTION        0.01          0.719        0.610
  WS02006242           JUNCTION        0.01          0.016        0.833
  WS02618401           JUNCTION        4.00          0.000        0.000
  WS8802               JUNCTION        4.00          0.000        4.942
  WSA1649              JUNCTION        4.00          0.000        0.000
  XR-Inflow            JUNCTION        3.33          5.411        0.239
  WS02004114           JUNCTION        3.37          5.415        1.100
  
  
  *********************
  Node Flooding Summary
  *********************
  
  No nodes were flooded.
  
  
  **********************
  Storage Volume Summary
  **********************
  
  --------------------------------------------------------------------------------------------------
                         Average     Avg  Evap Exfil       Maximum     Max    Time of Max    Maximum
                          Volume    Pcnt  Pcnt  Pcnt        Volume    Pcnt     Occurrence    Outflow
  Storage Unit           1000 m3    Full  Loss  Loss       1000 m3    Full    days hr:min        MLD
  --------------------------------------------------------------------------------------------------
  XR-storage               0.057      92     0     0         0.060      96       0  02:10      74.43
  CC-storage               0.048      30     0     0         0.148      93       0  02:15      34.56
  JK-storage               0.038      28     0     0         0.127      93       0  02:12      32.84
  
  
  ***********************
  Outfall Loading Summary
  ***********************
  
  ---------------------------------------------------------------------------------------------------------------------------------
                         Flow       Avg       Max       Total         Total         Total         Total         Total         Total
                         Freq      Flow      Flow      Volume           COD         NH3-N            TN            TP            SS
  Outfall Node           Pcnt       MLD       MLD    10^6 ltr            kg            kg            kg            kg            kg
  ---------------------------------------------------------------------------------------------------------------------------------
  outfall-24            94.23     35.69     61.11       4.057       451.949         0.000         0.000         0.000         0.000
  outfall-2              0.00      0.00      0.00       0.000         0.000         0.000         0.000         0.000         0.000
  outfall-5              0.00      0.00      0.00       0.000         0.000         0.000         0.000         0.000         0.000
  outfall-8              0.00      0.00      0.00       0.000         0.000         0.000         0.000         0.000         0.000
  outfall-14             0.00      0.00      0.00       0.000         0.000         0.000         0.000         0.000         0.000
  outfall-16             0.00      0.00      0.00       0.000         0.000         0.000         0.000         0.000         0.000
  outfall-17             0.00      0.00      0.00       0.000         0.000         0.000         0.000         0.000         0.000
  outfall-27             5.63      6.40      8.45       0.043         4.892         0.000         0.000         0.000         0.000
  outfall-28             2.54      1.60      3.20       0.005         0.522         0.000         0.000         0.000         0.000
  67                     0.00      0.00      0.00       0.000         0.000         0.000         0.000         0.000         0.000
  12                   100.00     64.70    119.33       9.161      1154.841         0.000         0.000         0.000         0.000
  ---------------------------------------------------------------------------------------------------------------------------------
  System                18.40    108.39    160.21      13.266      1612.204         0.000         0.000         0.000         0.000
  
  
  ********************
  Link Flow Summary
  ********************
  
  -----------------------------------------------------------------------------
                                 Maximum  Time of Max   Maximum    Max/    Max/
                                  |Flow|   Occurrence   |Veloc|    Full    Full
  Link                 Type          MLD  days hr:min     m/sec    Flow   Depth
  -----------------------------------------------------------------------------
  WSL49                CONDUIT    119.05     0  02:46      1.96    1.48    0.60
  WSL50                CONDUIT     16.28     0  02:19      1.85    1.12    0.39
  WSL51                CONDUIT     16.21     0  02:19      1.15    1.65    0.56
  WSL52                CONDUIT     16.20     0  02:19      1.00    0.75    0.63
  WSL53                CONDUIT     16.21     0  02:18      0.93    1.68    0.67
  WSL54                CONDUIT     16.25     0  02:18      0.86    1.30    0.72
  WSL55                CONDUIT     16.18     0  02:18      0.92    0.43    0.68
  WSL77                CONDUIT     16.24     0  02:17      0.99    0.85    0.64
  WSL78                CONDUIT     16.32     0  02:14      0.95    1.07    0.67
  WSL79                CONDUIT     16.44     0  02:14      0.98    0.56    0.65
  WSL80                CONDUIT     16.62     0  02:16      1.27    0.38    0.53
  WSL81                CONDUIT     17.45     0  02:16      1.49    1.29    0.49
  WSL82                CONDUIT     16.84     0  02:15      1.70    0.22    0.43
  WSL83                CONDUIT     16.65     0  02:12      2.51    0.21    0.32
  WSL84                CONDUIT     11.40     0  02:05      1.51    0.35    0.35
  WSL85                CONDUIT      0.40     0  01:16      0.40    0.01    0.68
  WSL86                CONDUIT      0.08     0  01:57      0.20    0.00    0.53
  WSL122               CONDUIT     13.32     0  02:11      0.70    1.33    0.73
  WSL123               CONDUIT     17.54     0  02:12      1.91    0.65    0.40
  WSL144               CONDUIT     12.78     0  02:09      0.70    0.50    0.71
  WSL145               CONDUIT     13.28     0  02:10      0.68    1.25    0.75
  WSL146               CONDUIT     14.28     0  02:11      0.78    1.05    0.70
  WSL147               CONDUIT     14.30     0  02:12      0.78    0.74    0.70
  WSL148               CONDUIT     14.31     0  02:12      0.79    1.36    0.69
  WSL149               CONDUIT     15.67     0  02:14      1.08    2.05    0.57
  WSL150               CONDUIT     15.86     0  02:13      1.42    0.52    0.47
  WSL151               CONDUIT     15.88     0  02:13      1.42    0.41    0.48
  WSL500               CONDUIT      9.83     0  02:05      1.48    0.32    0.32
  WSL502               CONDUIT     10.90     0  02:05      1.54    0.16    0.33
  WSL508               CONDUIT      6.44     0  02:36      0.75    0.24    0.51
  WSL509               CONDUIT      5.08     0  02:37      0.75    0.23    0.43
  WSL551               CONDUIT      4.57     0  02:01      1.05    0.11    0.23
  WSL553               CONDUIT      4.61     0  02:01      0.81    0.13    0.28
  WSL554               CONDUIT      4.66     0  02:02      0.73    0.24    0.31
  WSL555               CONDUIT      4.71     0  02:02      0.80    0.20    0.29
  WSL1465              CONDUIT     37.66     0  02:54      1.40    0.34    0.62
  WSL1472              CONDUIT    100.84     0  02:45      1.74    1.15    0.57
  WSL1475              CONDUIT    141.69     0  02:46      2.80    1.51    0.42
  WSL1476              CONDUIT     20.79     0  02:17      1.20    0.10    0.56
  WSL1477              CONDUIT      5.48     0  02:07      1.85    0.22    0.18
  WSL1490              CONDUIT     34.00     0  02:56      1.35    0.55    0.46
  WSL1491              CONDUIT     35.01     0  02:46      1.31    0.20    0.50
  WSL1492              CONDUIT     35.50     0  02:55      1.26    0.55    0.57
  WSL1506              CONDUIT      0.07     0  01:23      0.40    0.00    0.02
  WSL1507              CONDUIT      0.09     0  01:59      0.21    0.00    0.10
  WSL1508              CONDUIT      2.47     0  02:05      0.62    0.07    0.15
  WSL1512              CONDUIT      2.48     0  02:05      0.45    0.02    0.13
  WSL1513              CONDUIT      2.55     0  02:07      0.37    0.15    0.22
  WSL1515              CONDUIT     81.37     0  02:43      2.58    0.79    0.36
  WSL1516              CONDUIT      4.87     0  02:07      1.73    0.02    0.19
  WSL1518              CONDUIT      4.63     0  02:04      0.65    0.09    0.22
  WSL1519              CONDUIT      4.65     0  02:06      0.63    0.12    0.23
  WSL1521              CONDUIT      4.69     0  02:07      0.69    0.13    0.21
  WSL1525              CONDUIT     11.03     0  02:05      1.77    0.21    0.30
  WSL1526              CONDUIT     11.02     0  02:06      1.54    0.18    0.33
  WSL1529              CONDUIT     11.48     0  02:06      1.47    0.30    0.36
  WSL1530              CONDUIT     11.60     0  02:06      1.40    0.62    0.49
  WSL1532              CONDUIT     12.77     0  02:06      1.08    0.31    0.50
  WSL1543              CONDUIT      4.63     0  02:05      0.61    0.14    0.23
  WSL1545              CONDUIT     12.77     0  02:09      0.79    0.53    0.65
  WSL1641              CONDUIT      4.15     0  02:01      0.72    0.17    0.38
  WSL1642              CONDUIT      3.50     0  02:01      0.74    0.10    0.27
  WSL1643              CONDUIT      3.41     0  02:00      0.88    0.10    0.22
  WSL1644              CONDUIT      3.31     0  02:00      0.73    0.17    0.24
  WSL1646              CONDUIT      2.69     0  02:01      0.65    0.08    0.23
  WSL1647              CONDUIT      2.62     0  02:01      0.77    0.09    0.20
  WSL1652              CONDUIT      1.63     0  02:00      0.57    0.10    0.22
  WSL1764              CONDUIT     11.53     0  02:06      1.30    0.21    0.39
  WSL1931              CONDUIT      1.55     0  02:00      0.54    0.13    0.23
  WSL1932              CONDUIT      1.44     0  02:00      0.50    0.09    0.22
  WSL1934              CONDUIT      1.31     0  02:00      0.65    0.05    0.18
  WSL1935              CONDUIT      1.28     0  01:59      0.75    0.07    0.16
  WSL1961              CONDUIT     32.92     0  01:00      2.24    0.07    0.28
  WSL1964              CONDUIT     33.49     0  02:41      1.19    0.18    0.36
  WSL2010              CONDUIT     58.32     0  02:39      1.39    0.75    0.60
  WSL2011              CONDUIT     58.49     0  02:40      1.28    0.38    0.64
  WSL2012              CONDUIT     58.63     0  02:40      1.20    0.89    0.68
  WSL2013              CONDUIT     59.54     0  02:40      1.25    1.48    0.66
  WSL2014              CONDUIT     61.54     0  02:40      1.39    0.98    0.62
  WSL2015              CONDUIT     61.72     0  02:41      1.48    0.83    0.59
  WSL2016              CONDUIT     63.14     0  02:41      1.60    0.73    0.57
  WSL2017              CONDUIT     63.35     0  02:41      1.73    0.77    0.53
  WSL2018              CONDUIT     65.28     0  02:42      2.17    0.39    0.46
  WSL2019              CONDUIT     65.47     0  02:42      2.01    0.39    0.51
  WSL2028              CONDUIT     58.27     0  02:39      1.39    0.62    0.60
  WSL2029              CONDUIT     63.61     0  02:41      1.99    0.80    0.48
  WSL2031              CONDUIT      1.20     0  01:59      0.71    0.04    0.16
  WSL2032              CONDUIT      1.12     0  01:59      0.83    0.08    0.18
  WSL2034              CONDUIT      7.19     0  02:36      0.66    0.22    0.59
  WSL2037              CONDUIT      8.56     0  02:35      0.65    0.44    0.64
  WSL2038              CONDUIT     10.44     0  02:35      0.82    0.52    0.67
  WSL2039              CONDUIT     12.91     0  02:34      1.20    0.66    0.75
  WSL2041              CONDUIT     11.43     0  02:35      0.93    0.56    0.71
  WSL2124              CONDUIT      6.98     0  02:02      1.04    0.17    0.32
  WSL2126              CONDUIT      7.02     0  02:03      0.89    0.27    0.36
  WSL2127              CONDUIT      7.07     0  02:03      1.05    0.38    0.32
  WSL2128              CONDUIT      7.13     0  02:04      1.05    0.17    0.32
  WSL2130              CONDUIT      9.63     0  02:04      1.24    0.29    0.35
  WSL2146              CONDUIT      9.68     0  02:04      1.13    0.25    0.38
  WSL2147              CONDUIT      9.72     0  02:05      1.15    0.52    0.38
  WSL2148              CONDUIT      9.77     0  02:05      1.30    0.24    0.35
  WSL2294              CONDUIT     56.18     0  02:37      1.49    1.89    0.81
  WSL2295              CONDUIT     56.21     0  02:37      1.73    2.53    0.70
  WSL2296              CONDUIT     58.25     0  02:38      2.11    0.33    0.61
  WSL2297              CONDUIT     58.26     0  02:38      1.40    1.12    0.60
  WSL2298              CONDUIT     58.00     0  02:38      2.42    2.67    0.54
  WSL2301              CONDUIT     58.23     0  02:39      1.42    0.54    0.59
  WSL2302              CONDUIT     58.26     0  02:39      1.39    0.71    0.60
  WSL2357              CONDUIT      1.52     0  02:00      0.91    0.27    0.32
  WSL2358              CONDUIT      1.58     0  02:00      1.11    0.18    0.28
  WSL2359              CONDUIT      1.61     0  02:00      0.58    0.06    0.22
  WSL2361              CONDUIT      2.96     0  02:00      0.83    0.17    0.26
  WSL2362              CONDUIT      3.01     0  02:01      0.86    0.14    0.26
  WSL2441              CONDUIT     56.13     0  02:36      1.39    1.44    0.87
  WSL2442              CONDUIT     52.76     0  02:36      1.59    1.35    1.00
  WSL2443              CONDUIT     52.81     0  02:36      1.59    0.82    1.00
  WSL2444              CONDUIT     53.57     0  02:36      1.83    0.85    0.95
  WSL2446              CONDUIT     53.12     0  02:35      1.92    0.91    0.85
  WSL2447              CONDUIT     53.96     0  02:29      1.83    2.78    0.87
  WSL2448              CONDUIT     57.25     0  02:35      1.82    1.61    0.94
  WSL2449              CONDUIT     40.26     0  02:34      1.23    1.40    0.97
  WSL2450              CONDUIT     38.97     0  02:35      1.20    0.81    0.98
  WSL2451              CONDUIT     37.95     0  02:34      1.17    2.47    0.98
  WSL2452              CONDUIT     39.02     0  02:34      1.20    0.75    0.94
  WSL2454              CONDUIT     38.43     0  02:34      1.33    0.90    0.88
  WSL2478              CONDUIT     38.66     0  02:34      1.33    1.36    0.86
  WSL2479              CONDUIT     37.40     0  02:33      1.33    0.71    0.83
  WSL2480              CONDUIT     37.85     0  02:33      1.36    1.75    0.80
  WSL2482              CONDUIT     38.13     0  02:34      1.34    0.99    0.82
  WSL2484              CONDUIT     37.95     0  02:34      1.50    0.53    0.73
  WSL2493              CONDUIT     52.80     0  02:36      1.30    0.89    0.89
  WSL2867              CONDUIT     75.94     0  02:43      3.62    0.16    0.27
  WSL2868              CONDUIT     70.97     0  02:43      2.16    0.13    0.41
  5                    CONDUIT      2.60     0  02:00      0.83    0.12    0.24
  WSL348               CONDUIT     73.48     0  03:00      1.88    0.67    1.00
  WSL175               CONDUIT     73.89     0  03:00      2.43    2.49    1.00
  WSL1467              CONDUIT    101.27     0  02:44      1.71    0.54    0.58
  WSL1473              CONDUIT    100.82     0  02:45      1.73    0.41    0.58
  XRpipe               CONDUIT     74.43     0  03:00      9.00    0.18    1.00
  8                    CONDUIT      0.00     0  00:00      0.00    0.00    0.00
  19                   CONDUIT      0.00     0  00:00      0.00    0.00    0.00
  17                   CONDUIT      0.00     0  00:00      0.00    0.00    0.00
  4                    CONDUIT      0.00     0  00:00      0.00    0.00    0.00
  outletpipe           CONDUIT     61.11     0  02:10     13.51    0.20    0.31
  11                   CONDUIT      0.00     0  00:00      0.00    0.00    0.00
  20                   CONDUIT      0.00     0  00:00      0.00    0.00    0.00
  1                    CONDUIT      8.45     0  02:15      3.30    0.18    0.29
  28                   CONDUIT      3.20     0  02:13      1.93    0.10    0.21
  30                   CONDUIT      0.00     0  00:00      0.00    0.00    0.00
  2                    CONDUIT    119.33     0  02:46      3.93    0.43    0.46
  XR-Pump-1            PUMP         8.12     0  00:50              1.00
  XR-Pump-3            PUMP         8.12     0  00:50              1.00
  XR-Pump-2            PUMP         8.12     0  00:50              1.00
  XR-Pump-4            PUMP         8.12     0  00:50              1.00
  CC-Pump-1            PUMP        17.28     0  02:30              1.00
  CC-Pump-2            PUMP        17.28     0  01:30              1.00
  JK-Pump-1            PUMP        15.56     0  02:29              0.90
  JK-Pump-2            PUMP        17.28     0  01:30              1.00
  
  
  ***************************
  Flow Classification Summary
  ***************************
  
  -------------------------------------------------------------------------------------
                      Adjusted    ---------- Fraction of Time in Flow Class ---------- 
                       /Actual         Up    Down  Sub   Sup   Up    Down  Norm  Inlet 
  Conduit               Length    Dry  Dry   Dry   Crit  Crit  Crit  Crit  Ltd   Ctrl  
  -------------------------------------------------------------------------------------
  WSL49                   1.00   0.00  0.00  0.00  1.00  0.00  0.00  0.00  0.00  0.00
  WSL50                   1.00   0.00  0.00  0.00  0.08  0.92  0.00  0.00  0.00  0.00
  WSL51                   1.00   0.00  0.00  0.00  1.00  0.00  0.00  0.00  0.01  0.00
  WSL52                   1.00   0.00  0.00  0.00  1.00  0.00  0.00  0.00  0.10  0.00
  WSL53                   1.00   0.00  0.00  0.00  1.00  0.00  0.00  0.00  0.01  0.00
  WSL54                   1.00   0.00  0.00  0.00  1.00  0.00  0.00  0.00  0.00  0.00
  WSL55                   1.00   0.00  0.00  0.00  1.00  0.00  0.00  0.00  0.21  0.00
  WSL77                   1.00   0.00  0.00  0.00  1.00  0.00  0.00  0.00  0.00  0.00
  WSL78                   1.00   0.00  0.00  0.00  1.00  0.00  0.00  0.00  0.00  0.00
  WSL79                   1.00   0.00  0.00  0.00  1.00  0.00  0.00  0.00  0.34  0.00
  WSL80                   1.00   0.00  0.00  0.00  1.00  0.00  0.00  0.00  0.48  0.00
  WSL81                   1.00   0.00  0.00  0.00  1.00  0.00  0.00  0.00  0.00  0.00
  WSL82                   1.00   0.00  0.00  0.00  0.13  0.87  0.00  0.00  0.77  0.00
  WSL83                   1.00   0.00  0.00  0.00  0.00  1.00  0.00  0.00  0.55  0.00
  WSL84                   1.00   0.00  0.00  0.00  0.03  0.97  0.00  0.00  0.03  0.00
  WSL85                   1.00   0.00  0.00  0.00  1.00  0.00  0.00  0.00  0.12  0.00
  WSL86                   1.00   0.00  0.00  0.00  1.00  0.00  0.00  0.00  0.45  0.00
  WSL122                  1.00   0.00  0.00  0.00  1.00  0.00  0.00  0.00  0.00  0.00
  WSL123                  1.00   0.00  0.00  0.00  0.07  0.93  0.00  0.00  0.02  0.00
  WSL144                  1.00   0.00  0.00  0.00  1.00  0.00  0.00  0.00  0.26  0.00
  WSL145                  1.00   0.00  0.00  0.00  1.00  0.00  0.00  0.00  0.01  0.00
  WSL146                  1.00   0.00  0.00  0.00  1.00  0.00  0.00  0.00  0.03  0.00
  WSL147                  1.00   0.00  0.00  0.00  1.00  0.00  0.00  0.00  0.04  0.00
  WSL148                  1.00   0.00  0.00  0.00  1.00  0.00  0.00  0.00  0.00  0.00
  WSL149                  1.00   0.00  0.00  0.00  1.00  0.00  0.00  0.00  0.01  0.00
  WSL150                  1.00   0.00  0.00  0.00  0.55  0.45  0.00  0.00  0.00  0.00
  WSL151                  1.00   0.00  0.00  0.00  0.86  0.14  0.00  0.00  0.13  0.00
  WSL500                  1.00   0.00  0.00  0.00  0.02  0.98  0.00  0.00  0.00  0.00
  WSL502                  1.00   0.00  0.00  0.00  0.01  0.99  0.00  0.00  1.00  0.00
  WSL508                  1.00   0.00  0.00  0.00  1.00  0.00  0.00  0.00  0.09  0.00
  WSL509                  1.00   0.00  0.00  0.00  1.00  0.00  0.00  0.00  0.01  0.00
  WSL551                  1.00   0.00  0.00  0.00  0.30  0.70  0.00  0.00  0.75  0.00
  WSL553                  1.00   0.00  0.00  0.00  1.00  0.00  0.00  0.00  1.00  0.00
  WSL554                  1.00   0.00  0.00  0.00  1.00  0.00  0.00  0.00  0.23  0.00
  WSL555                  1.00   0.00  0.00  0.00  1.00  0.00  0.00  0.00  0.00  0.00
  WSL1465                 1.00   0.00  0.00  0.00  1.00  0.00  0.00  0.00  0.16  0.00
  WSL1472                 1.00   0.00  0.00  0.00  1.00  0.00  0.00  0.00  0.00  0.00
  WSL1475                 1.00   0.00  0.00  0.00  0.26  0.74  0.00  0.00  0.01  0.00
  WSL1476                 1.00   0.00  0.00  0.00  1.00  0.00  0.00  0.00  1.00  0.00
  WSL1477                 1.00   0.00  0.00  0.00  0.00  1.00  0.00  0.00  0.10  0.00
  WSL1490                 1.00   0.00  0.00  0.00  1.00  0.00  0.00  0.00  0.01  0.00
  WSL1491                 1.00   0.00  0.00  0.00  1.00  0.00  0.00  0.00  0.18  0.00
  WSL1492                 1.00   0.00  0.00  0.00  1.00  0.00  0.00  0.00  0.02  0.00
  WSL1506                 1.00   0.00  0.00  0.00  1.00  0.00  0.00  0.00  0.99  0.00
  WSL1507                 1.00   0.00  0.00  0.00  1.00  0.00  0.00  0.00  0.91  0.00
  WSL1508                 1.00   0.00  0.00  0.00  1.00  0.00  0.00  0.00  0.00  0.00
  WSL1512                 1.00   0.00  0.00  0.00  1.00  0.00  0.00  0.00  1.00  0.00
  WSL1513                 1.00   0.00  0.00  0.00  1.00  0.00  0.00  0.00  0.00  0.00
  WSL1515                 1.00   0.00  0.00  0.00  0.03  0.97  0.00  0.00  0.01  0.00
  WSL1516                 1.00   0.00  0.00  0.00  0.00  1.00  0.00  0.00  1.00  0.00
  WSL1518                 1.00   0.00  0.00  0.00  1.00  0.00  0.00  0.00  0.68  0.00
  WSL1519                 1.00   0.00  0.00  0.00  1.00  0.00  0.00  0.00  0.35  0.00
  WSL1521                 1.00   0.00  0.00  0.00  1.00  0.00  0.00  0.00  0.02  0.00
  WSL1525                 1.00   0.00  0.00  0.00  0.00  1.00  0.00  0.00  0.18  0.00
  WSL1526                 1.00   0.00  0.00  0.00  0.00  1.00  0.00  0.00  0.59  0.00
  WSL1529                 1.00   0.00  0.00  0.00  0.00  1.00  0.00  0.00  0.92  0.00
  WSL1530                 1.00   0.00  0.00  0.00  0.17  0.83  0.00  0.00  0.00  0.00
  WSL1532                 1.00   0.00  0.00  0.00  1.00  0.00  0.00  0.00  1.00  0.00
  WSL1543                 1.00   0.00  0.00  0.00  1.00  0.00  0.00  0.00  0.02  0.00
  WSL1545                 1.00   0.00  0.00  0.00  1.00  0.00  0.00  0.00  0.05  0.00
  WSL1641                 1.00   0.00  0.00  0.00  1.00  0.00  0.00  0.00  0.39  0.00
  WSL1642                 1.00   0.00  0.00  0.00  1.00  0.00  0.00  0.00  0.98  0.00
  WSL1643                 1.00   0.00  0.00  0.00  1.00  0.00  0.00  0.00  0.50  0.00
  WSL1644                 1.00   0.00  0.00  0.00  1.00  0.00  0.00  0.00  0.02  0.00
  WSL1646                 1.00   0.00  0.00  0.00  1.00  0.00  0.00  0.00  0.99  0.00
  WSL1647                 1.00   0.00  0.00  0.00  1.00  0.00  0.00  0.00  0.02  0.00
  WSL1652                 1.00   0.00  0.00  0.00  1.00  0.00  0.00  0.00  0.49  0.00
  WSL1764                 1.00   0.00  0.00  0.00  0.25  0.75  0.00  0.00  0.34  0.00
  WSL1931                 1.00   0.00  0.00  0.00  1.00  0.00  0.00  0.00  0.00  0.00
  WSL1932                 1.00   0.00  0.00  0.00  1.00  0.00  0.00  0.00  0.99  0.00
  WSL1934                 1.00   0.00  0.00  0.00  1.00  0.00  0.00  0.00  1.00  0.00
  WSL1935                 1.00   0.00  0.00  0.00  0.76  0.24  0.00  0.00  0.00  0.00
  WSL1961                 1.00   0.00  0.00  0.00  0.17  0.83  0.00  0.00  0.99  0.00
  WSL1964                 1.00   0.00  0.00  0.00  1.00  0.00  0.00  0.00  0.25  0.00
  WSL2010                 1.00   0.00  0.00  0.00  1.00  0.00  0.00  0.00  0.00  0.00
  WSL2011                 1.00   0.00  0.00  0.00  1.00  0.00  0.00  0.00  0.13  0.00
  WSL2012                 1.00   0.00  0.00  0.00  1.00  0.00  0.00  0.00  0.00  0.00
  WSL2013                 1.00   0.00  0.00  0.00  1.00  0.00  0.00  0.00  0.00  0.00
  WSL2014                 1.00   0.00  0.00  0.00  1.00  0.00  0.00  0.00  0.00  0.00
  WSL2015                 1.00   0.00  0.00  0.00  1.00  0.00  0.00  0.00  0.02  0.00
  WSL2016                 1.00   0.00  0.00  0.00  1.00  0.00  0.00  0.00  0.06  0.00
  WSL2017                 1.00   0.00  0.00  0.00  1.00  0.00  0.00  0.00  0.04  0.00
  WSL2018                 1.00   0.00  0.00  0.00  0.00  1.00  0.00  0.00  0.15  0.00
  WSL2019                 1.00   0.00  0.00  0.00  0.10  0.90  0.00  0.00  0.11  0.00
  WSL2028                 1.00   0.00  0.00  0.00  1.00  0.00  0.00  0.00  0.07  0.00
  WSL2029                 1.00   0.00  0.00  0.00  0.16  0.84  0.00  0.00  0.00  0.00
  WSL2031                 1.00   0.00  0.00  0.00  1.00  0.00  0.00  0.00  1.00  0.00
  WSL2032                 1.00   0.00  0.00  0.00  0.30  0.70  0.00  0.00  0.77  0.00
  WSL2034                 1.00   0.00  0.00  0.00  1.00  0.00  0.00  0.00  0.07  0.00
  WSL2037                 1.00   0.00  0.00  0.00  1.00  0.00  0.00  0.00  0.03  0.00
  WSL2038                 1.00   0.00  0.00  0.00  1.00  0.00  0.00  0.00  0.02  0.00
  WSL2039                 1.00   0.00  0.00  0.00  0.64  0.36  0.00  0.00  0.01  0.00
  WSL2041                 1.00   0.00  0.00  0.00  1.00  0.00  0.00  0.00  0.04  0.00
  WSL2124                 1.00   0.00  0.00  0.00  1.00  0.00  0.00  0.00  0.75  0.00
  WSL2126                 1.00   0.00  0.00  0.00  1.00  0.00  0.00  0.00  0.61  0.00
  WSL2127                 1.00   0.00  0.00  0.00  1.00  0.00  0.00  0.00  0.00  0.00
  WSL2128                 1.00   0.00  0.00  0.00  1.00  0.00  0.00  0.00  0.85  0.00
  WSL2130                 1.00   0.00  0.00  0.00  0.39  0.61  0.00  0.00  0.01  0.00
  WSL2146                 1.00   0.00  0.00  0.00  1.00  0.00  0.00  0.00  0.75  0.00
  WSL2147                 1.00   0.00  0.00  0.00  1.00  0.00  0.00  0.00  0.01  0.00
  WSL2148                 1.00   0.00  0.00  0.00  0.31  0.69  0.00  0.00  0.46  0.00
  WSL2294                 1.00   0.00  0.00  0.00  1.00  0.00  0.00  0.00  0.00  0.00
[...]
  2                       1.00   0.00  0.00  0.00  0.00  1.00  0.00  0.00  0.33  0.00
  
  
  *************************
  Conduit Surcharge Summary
  *************************
  
  ----------------------------------------------------------------------------
                                                           Hours        Hours 
                         --------- Hours Full --------   Above Full   Capacity
  Conduit                Both Ends  Upstream  Dnstream   Normal Flow   Limited
  ----------------------------------------------------------------------------
  WSL49                       0.01      0.01      0.01      0.74         0.01
  WSL50                       0.01      0.01      0.01      0.49         0.01
  WSL51                       0.01      0.01      0.01      1.40         0.01
  WSL53                       0.01      0.01      0.01      1.42         0.01
  WSL54                       0.01      0.01      0.01      0.88         0.01
  WSL78                       0.01      0.01      0.01      0.28         0.01
  WSL81                       0.01      0.01      0.01      0.58         0.01
  WSL122                      0.01      0.01      0.01      0.91         0.01
  WSL145                      0.01      0.01      0.01      0.74         0.01
  WSL146                      0.01      0.01      0.01      0.28         0.01
  WSL148                      0.01      0.01      0.01      0.97         0.01
  WSL149                      0.01      0.01      0.01      1.63         0.01
  WSL1472                     0.01      0.01      0.01      0.35         0.01
  WSL1475                     0.01      0.01      0.01      0.50         0.01
  WSL2013                     0.01      0.01      0.01      0.47         0.01
  WSL2294                     0.01      0.01      0.01      0.74         0.01
  WSL2295                     0.01      0.01      0.01      1.00         0.01
  WSL2297                     0.01      0.01      0.01      0.23         0.01
  WSL2298                     0.01      0.01      0.01      1.13         0.01
  WSL2441                     0.01      0.01      0.01      0.43         0.01
  WSL2442                     0.01      0.13      0.01      0.34         0.01
  WSL2443                     0.01      0.01      0.13      0.01         0.01
  WSL2444                     0.01      0.01      0.01      0.01         0.01
  WSL2447                     0.01      0.01      0.01      0.97         0.01
  WSL2448                     0.01      0.01      0.01      0.41         0.01
  WSL2449                     0.01      0.01      0.01      0.20         0.01
  WSL2450                     0.01      0.01      0.01      0.01         0.01
  WSL2451                     0.01      0.01      0.01      0.68         0.01
  WSL2452                     0.01      0.01      0.01      0.01         0.01
  WSL2478                     0.01      0.01      0.01      0.16         0.01
  WSL2480                     0.01      0.01      0.01      0.28         0.01
  WSL348                      3.33      3.33      3.36      0.01         0.01
  WSL175                      3.36      3.36      3.37      2.47         2.58
  XRpipe                      3.37      3.37      3.73      0.01         0.01
  
  
  ***************
  Pumping Summary
  ***************
  
  ---------------------------------------------------------------------------------------------------------
                                                  Min       Avg       Max     Total     Power    % Time Off
                        Percent   Number of      Flow      Flow      Flow    Volume     Usage    Pump Curve
  Pump                 Utilized   Start-Ups       MLD       MLD       MLD  10^6 ltr     Kw-hr    Low   High
  ---------------------------------------------------------------------------------------------------------
  XR-Pump-1               83.33           3      0.00      6.26      8.12     0.874      4.15    0.0    0.0
  XR-Pump-3               83.33           3      0.00      6.26      8.12     0.874      4.15    0.0    0.0
  XR-Pump-2               83.33           3      0.00      6.26      8.12     0.874      4.15    0.0    0.0
  XR-Pump-4               83.33           3      0.00      6.26      8.12     0.874      4.15    0.0    0.0
  CC-Pump-1               12.50           1      0.00      8.54     17.28     0.178      1.58    0.0    0.0
  CC-Pump-2               45.81           4      0.00      7.74     17.28     0.559      5.24    0.0    0.0
  JK-Pump-1               12.50           1      0.00      6.78     15.56     0.141      1.62    0.0    0.0
  JK-Pump-2               45.81           3      0.00      7.59     17.28     0.593      5.12    0.0    0.0
  
  
  ***************************
  Link Pollutant Load Summary
  ***************************
  
  ------------------------------------------------------------------------------------------
                                 COD         NH3-N            TN            TP            SS
  Link                            kg            kg            kg            kg            kg
  ------------------------------------------------------------------------------------------
  WSL49                     1119.830         0.000         0.000         0.000         0.000
  WSL50                      169.346         0.000         0.000         0.000         0.000
  WSL51                      167.930         0.000         0.000         0.000         0.000
  WSL52                      167.856         0.000         0.000         0.000         0.000
  WSL53                      167.266         0.000         0.000         0.000         0.000
  WSL54                      167.402         0.000         0.000         0.000         0.000
  WSL55                      166.321         0.000         0.000         0.000         0.000
  WSL77                      166.091         0.000         0.000         0.000         0.000
  WSL78                      165.536         0.000         0.000         0.000         0.000
  WSL79                      164.644         0.000         0.000         0.000         0.000
  WSL80                      163.250         0.000         0.000         0.000         0.000
  WSL81                      161.607         0.000         0.000         0.000         0.000
  WSL82                      160.767         0.000         0.000         0.000         0.000
  WSL83                      160.571         0.000         0.000         0.000         0.000
  WSL84                       89.935         0.000         0.000         0.000         0.000
  WSL85                        3.272         0.000         0.000         0.000         0.000
  WSL86                        1.040         0.000         0.000         0.000         0.000
  WSL122                     132.576         0.000         0.000         0.000         0.000
  WSL123                     159.493         0.000         0.000         0.000         0.000
  WSL144                     112.058         0.000         0.000         0.000         0.000
  WSL145                     131.531         0.000         0.000         0.000         0.000
  WSL146                     138.262         0.000         0.000         0.000         0.000
  WSL147                     138.591         0.000         0.000         0.000         0.000
  WSL148                     138.489         0.000         0.000         0.000         0.000
  WSL149                     157.632         0.000         0.000         0.000         0.000
  WSL150                     159.089         0.000         0.000         0.000         0.000
  WSL151                     159.265         0.000         0.000         0.000         0.000
  WSL500                      81.209         0.000         0.000         0.000         0.000
  WSL502                      88.376         0.000         0.000         0.000         0.000
  WSL508                      49.029         0.000         0.000         0.000         0.000
  WSL509                      47.055         0.000         0.000         0.000         0.000
  WSL551                      41.694         0.000         0.000         0.000         0.000
  WSL553                      42.764         0.000         0.000         0.000         0.000
  WSL554                      43.993         0.000         0.000         0.000         0.000
  WSL555                      45.552         0.000         0.000         0.000         0.000
  WSL1465                    451.076         0.000         0.000         0.000         0.000
  WSL1472                    907.588         0.000         0.000         0.000         0.000
  WSL1475                   1137.512         0.000         0.000         0.000         0.000
  WSL1476                    210.302         0.000         0.000         0.000         0.000
  WSL1477                     39.264         0.000         0.000         0.000         0.000
  WSL1490                    434.409         0.000         0.000         0.000         0.000
  WSL1491                    438.753         0.000         0.000         0.000         0.000
  WSL1492                    446.461         0.000         0.000         0.000         0.000
  WSL1506                      1.646         0.000         0.000         0.000         0.000
  WSL1507                      2.135         0.000         0.000         0.000         0.000
  WSL1508                     23.103         0.000         0.000         0.000         0.000
  WSL1512                     23.541         0.000         0.000         0.000         0.000
  WSL1513                     25.181         0.000         0.000         0.000         0.000
  WSL1515                    448.039         0.000         0.000         0.000         0.000
  WSL1516                     39.978         0.000         0.000         0.000         0.000
  WSL1518                     36.554         0.000         0.000         0.000         0.000
  WSL1519                     37.293         0.000         0.000         0.000         0.000
  WSL1521                     38.395         0.000         0.000         0.000         0.000
  WSL1525                     91.379         0.000         0.000         0.000         0.000
  WSL1526                     91.806         0.000         0.000         0.000         0.000
  WSL1529                     96.016         0.000         0.000         0.000         0.000
  WSL1530                     99.392         0.000         0.000         0.000         0.000
  WSL1532                    107.099         0.000         0.000         0.000         0.000
  WSL1543                     36.847         0.000         0.000         0.000         0.000
  WSL1545                    110.751         0.000         0.000         0.000         0.000
  WSL1641                     43.861         0.000         0.000         0.000         0.000
  WSL1642                     39.359         0.000         0.000         0.000         0.000
  WSL1643                     36.652         0.000         0.000         0.000         0.000
  WSL1644                     33.961         0.000         0.000         0.000         0.000
  WSL1646                     29.343         0.000         0.000         0.000         0.000
  WSL1647                     27.246         0.000         0.000         0.000         0.000
  WSL1652                     21.215         0.000         0.000         0.000         0.000
  WSL1764                     97.553         0.000         0.000         0.000         0.000
  WSL1931                     19.245         0.000         0.000         0.000         0.000
  WSL1932                     16.469         0.000         0.000         0.000         0.000
  WSL1934                     13.135         0.000         0.000         0.000         0.000
  WSL1935                     12.432         0.000         0.000         0.000         0.000
  WSL1961                    421.449         0.000         0.000         0.000         0.000
  WSL1964                    430.300         0.000         0.000         0.000         0.000
  WSL2010                    328.385         0.000         0.000         0.000         0.000
  WSL2011                    333.624         0.000         0.000         0.000         0.000
  WSL2012                    339.118         0.000         0.000         0.000         0.000
  WSL2013                    348.174         0.000         0.000         0.000         0.000
  WSL2014                    389.998         0.000         0.000         0.000         0.000
  WSL2015                    391.571         0.000         0.000         0.000         0.000
  WSL2016                    417.831         0.000         0.000         0.000         0.000
  WSL2017                    420.560         0.000         0.000         0.000         0.000
  WSL2018                    440.036         0.000         0.000         0.000         0.000
  WSL2019                    442.282         0.000         0.000         0.000         0.000
  WSL2028                    323.287         0.000         0.000         0.000         0.000
  WSL2029                    426.032         0.000         0.000         0.000         0.000
  WSL2031                     10.281         0.000         0.000         0.000         0.000
  WSL2032                      8.441         0.000         0.000         0.000         0.000
  WSL2034                     49.740         0.000         0.000         0.000         0.000
  WSL2037                     51.029         0.000         0.000         0.000         0.000
  WSL2038                     66.131         0.000         0.000         0.000         0.000
  WSL2039                     71.456         0.000         0.000         0.000         0.000
  WSL2041                     69.170         0.000         0.000         0.000         0.000
  WSL2124                     58.482         0.000         0.000         0.000         0.000
  WSL2126                     59.423         0.000         0.000         0.000         0.000
  WSL2127                     60.934         0.000         0.000         0.000         0.000
  WSL2128                     62.511         0.000         0.000         0.000         0.000
  WSL2130                     76.274         0.000         0.000         0.000         0.000
  WSL2146                     77.724         0.000         0.000         0.000         0.000
  WSL2147                     78.565         0.000         0.000         0.000         0.000
  WSL2148                     79.712         0.000         0.000         0.000         0.000
  WSL2294                    300.008         0.000         0.000         0.000         0.000
  WSL2295                    301.377         0.000         0.000         0.000         0.000
  WSL2296                    311.157         0.000         0.000         0.000         0.000
  WSL2297                    315.565         0.000         0.000         0.000         0.000
  WSL2298                    305.120         0.000         0.000         0.000         0.000
  WSL2301                    316.986         0.000         0.000         0.000         0.000
  WSL2302                    322.538         0.000         0.000         0.000         0.000
  WSL2357                     14.586         0.000         0.000         0.000         0.000
  WSL2358                     16.200         0.000         0.000         0.000         0.000
  WSL2359                     17.194         0.000         0.000         0.000         0.000
  WSL2361                     31.427         0.000         0.000         0.000         0.000
  WSL2362                     32.779         0.000         0.000         0.000         0.000
  WSL2441                    298.377         0.000         0.000         0.000         0.000
  WSL2442                    236.843         0.000         0.000         0.000         0.000
  WSL2443                    235.200         0.000         0.000         0.000         0.000
  WSL2444                    231.804         0.000         0.000         0.000         0.000
  WSL2446                    229.752         0.000         0.000         0.000         0.000
  WSL2447                    226.133         0.000         0.000         0.000         0.000
  WSL2448                    222.224         0.000         0.000         0.000         0.000
  WSL2449                    172.124         0.000         0.000         0.000         0.000
  WSL2450                    169.599         0.000         0.000         0.000         0.000
  WSL2451                    168.327         0.000         0.000         0.000         0.000
  WSL2452                    166.657         0.000         0.000         0.000         0.000
  WSL2454                    162.284         0.000         0.000         0.000         0.000
  WSL2478                    160.450         0.000         0.000         0.000         0.000
  WSL2479                    148.987         0.000         0.000         0.000         0.000
  WSL2480                    145.807         0.000         0.000         0.000         0.000
  WSL2482                    141.633         0.000         0.000         0.000         0.000
  WSL2484                    133.337         0.000         0.000         0.000         0.000
  WSL2493                    239.633         0.000         0.000         0.000         0.000
  WSL2867                    449.555         0.000         0.000         0.000         0.000
  WSL2868                    453.446         0.000         0.000         0.000         0.000
  5                           26.785         0.000         0.000         0.000         0.000
  WSL348                     873.989         0.000         0.000         0.000         0.000
  WSL175                     881.313         0.000         0.000         0.000         0.000
  WSL1467                    902.772         0.000         0.000         0.000         0.000
  WSL1473                    911.049         0.000         0.000         0.000         0.000
  XRpipe                     899.505         0.000         0.000         0.000         0.000
  8                            0.000         0.000         0.000         0.000         0.000
  19                           0.000         0.000         0.000         0.000         0.000
  17                           0.000         0.000         0.000         0.000         0.000
  4                            0.000         0.000         0.000         0.000         0.000
  outletpipe                 451.949         0.000         0.000         0.000         0.000
  11                           0.000         0.000         0.000         0.000         0.000
  20                           0.000         0.000         0.000         0.000         0.000
  1                            4.892         0.000         0.000         0.000         0.000
  28                           0.522         0.000         0.000         0.000         0.000
  30                           0.000         0.000         0.000         0.000         0.000
  2                         1154.841         0.000         0.000         0.000         0.000
  XR-Pump-1                  102.383         0.000         0.000         0.000         0.000
  XR-Pump-3                  102.383         0.000         0.000         0.000         0.000
  XR-Pump-2                  102.383         0.000         0.000         0.000         0.000
  XR-Pump-4                  102.383         0.000         0.000         0.000         0.000
  CC-Pump-1                   12.357         0.000         0.000         0.000         0.000
  CC-Pump-2                   46.707         0.000         0.000         0.000         0.000
  JK-Pump-1                    5.196         0.000         0.000         0.000         0.000
  JK-Pump-2                   41.814         0.000         0.000         0.000         0.000
  

  Analysis begun on:  Mon Oct 29 01:03:12 2018
  Analysis ended on:  Mon Oct 29 01:03:16 2018
  Total elapsed time: 00:00:04