
  EPA STORM WATER MANAGEMENT MODEL - VERSION 5.1 (Build 5.2.0.dev1)
  --------------------------------------------------------------

  
  *********************************************************
  NOTE: The summary statistics displayed in this report are
  based on results found at every computational time step,  
  not just on results from each reporting time step.
  *********************************************************
  
  ****************
  Analysis Options
  ****************
  Flow Units ............... MLD
  Process Models:
    Rainfall/Runoff ........ YES
    RDII ................... NO
    Snowmelt ............... NO
    Groundwater ............ NO
    Flow Routing ........... YES
    Ponding Allowed ........ NO
    Water Quality .......... YES
  Infiltration Method ...... GREEN_AMPT
  Flow Routing Method ...... DYNWAVE
  Starting Date ............ 08/28/2015 08:00:00
  Ending Date .............. 08/28/2015 12:00:00
  Antecedent Dry Days ...... 4.0
  Report Time Step ......... 00:01:00
  Wet Time Step ............ 00:01:00
  Dry Time Step ............ 00:01:00
  Routing Time Step ........ 5.00 sec
  Variable Time Step ....... YES
  Maximum Trials ........... 8
  Number of Threads ........ 1
  Head Tolerance ........... 0.001500 m
  
  
  **************************        Volume         Depth
  Runoff Quantity Continuity     hectare-m            mm
  **************************     ---------       -------
  Total Precipitation ......         2.662         8.052
  Evaporation Loss .........         0.000         0.000
  Infiltration Loss ........         1.532         4.633
  Surface Runoff ...........         0.506         1.531
  Final Storage ............         0.625         1.892
  Continuity Error (%) .....        -0.038
  
  
  **************************           COD         NH3-N            TN            TP            SS
  Runoff Quality Continuity             kg            kg            kg            kg            kg
  **************************    ----------    ----------    ----------    ----------    ----------
  Initial Buildup ..........     15404.640         0.000         0.000         0.000         0.000
  Surface Buildup ..........       140.584         0.000         0.000         0.000         0.000
  Wet Deposition ...........         0.000         0.000         0.000         0.000         0.000
  Sweeping Removal .........         0.000         0.000         0.000         0.000         0.000
  Infiltration Loss ........        72.521         0.000         0.000         0.000         0.000
  BMP Removal ..............         0.000         0.000         0.000         0.000         0.000
  Surface Runoff ...........       354.958         0.000         0.000         0.000         0.000
  Remaining Buildup ........     15117.387         0.000         0.000         0.000         0.000
  Continuity Error (%) .....         0.002         0.000         0.000         0.000         0.000
  
  
  **************************        Volume        Volume
  Flow Routing Continuity        hectare-m      10^6 ltr
  **************************     ---------     ---------
  Dry Weather Inflow .......         0.000         0.000
  Wet Weather Inflow .......         0.505         5.048
  Groundwater Inflow .......         0.000         0.000
  RDII Inflow ..............         0.000         0.000
  External Inflow ..........         0.621         6.206
  External Outflow .........         1.067        10.670
  Flooding Loss ............         0.000         0.000
  Evaporation Loss .........         0.000         0.000
  Exfiltration Loss ........         0.000         0.000
  Initial Stored Volume ....         0.000         0.000
  Final Stored Volume ......         0.068         0.679
  Continuity Error (%) .....        -0.848
  
  
  **************************           COD         NH3-N            TN            TP            SS
  Quality Routing Continuity            kg            kg            kg            kg            kg
  **************************    ----------    ----------    ----------    ----------    ----------
  Dry Weather Inflow .......         0.000         0.000         0.000         0.000         0.000
  Wet Weather Inflow .......       354.353         0.000         0.000         0.000         0.000
  Groundwater Inflow .......         0.000         0.000         0.000         0.000         0.000
  RDII Inflow ..............         0.000         0.000         0.000         0.000         0.000
  External Inflow ..........      1036.440         0.000         0.000         0.000         0.000
  External Outflow .........      1261.676         0.000         0.000         0.000         0.000
  Flooding Loss ............         0.000         0.000         0.000         0.000         0.000
  Exfiltration Loss ........         0.000         0.000         0.000         0.000         0.000
  Mass Reacted .............         0.000         0.000         0.000         0.000         0.000
  Initial Stored Mass ......         0.000         0.000         0.000         0.000         0.000
  Final Stored Mass ........        67.352         0.000         0.000         0.000         0.000
  Continuity Error (%) .....         4.441         0.000         0.000         0.000         0.000
  
  
  *************************
  Highest Continuity Errors
  *************************
  Node WS02003123 (1.92%)
  Node WS02003099 (1.26%)
  Node WS02003094 (1.04%)
  
  
  ***************************
  Time-Step Critical Elements
  ***************************
  Link outletpipe (93.53%)
  Link WSL2448 (4.89%)
  Link XRpipe (1.14%)
  
  
  ********************************
  Highest Flow Instability Indexes
  ********************************
  Link WSL1477 (30)
  Link WSL1516 (27)
  Link WSL84 (7)
  Link WSL1515 (5)
  Link WSL2867 (3)
  
  
  *************************
  Routing Time Step Summary
  *************************
  Minimum Time Step           :     0.03 sec
  Average Time Step           :     0.69 sec
  Maximum Time Step           :     5.00 sec
  Percent in Steady State     :    -0.00
  Average Iterations per Step :     2.16
  Percent Not Converging      :     2.38
  
  
  ***************************
  Subcatchment Runoff Summary
  ***************************
  
  --------------------------------------------------------------------------------------------------------
                            Total      Total      Total      Total      Total       Total     Peak  Runoff
                           Precip      Runon       Evap      Infil     Runoff      Runoff   Runoff   Coeff
  Subcatchment                 mm         mm         mm         mm         mm    10^6 ltr      MLD
  --------------------------------------------------------------------------------------------------------
  1                          8.05       5.77       0.00       6.58       4.47        0.05     0.85   0.324
  2                          8.05       0.00       0.00       5.54       2.02        0.07     1.29   0.251
  3                          8.05       0.00       0.00       5.55       1.96        0.10     1.86   0.243
  4                          8.05       0.00       0.00       5.54       2.06        0.05     1.05   0.255
  5                          8.05       5.06       0.00       6.53       4.06        0.07     1.14   0.309
  6                          8.05       0.00       0.00       5.55       1.96        0.10     1.81   0.244
  7                          8.05       0.00       0.00       3.46       1.69        2.70    40.46   0.210
  8                          8.05       0.00       0.00       5.54       1.99        0.08     1.58   0.247
  9                          8.05       1.95       0.00       5.97       2.62        0.10     1.76   0.262
  10                         8.05       3.29       0.00       6.16       3.24        0.06     1.00   0.286
  11                         8.05       0.00       0.00       5.53       2.10        0.04     0.81   0.261
  13                         8.05      30.19       0.00       8.26      22.73        0.04     0.60   0.594
  14                         8.05      31.18       0.00       8.75      24.25        0.05     0.78   0.618
  16                         8.05       5.39       0.00       6.24       4.27        0.03     0.39   0.318
  17                         8.05       0.00       0.00       5.54       2.01        0.07     1.39   0.249
  18                         8.05       0.00       0.00       5.55       1.98        0.09     1.61   0.246
  19                         8.05       0.00       0.00       5.54       2.06        0.05     1.01   0.256
  20                         8.05       1.86       0.00       5.95       2.66        0.07     1.34   0.269
  21                         8.05       4.90       0.00       6.47       4.01        0.06     1.00   0.310
  22                         8.05       3.77       0.00       6.33       3.53        0.06     1.08   0.299
  23                         8.05       0.00       0.00       5.50       2.25        0.02     0.32   0.280
  24                         8.05       0.00       0.00       5.53       2.08        0.05     0.89   0.259
  25                         8.05       0.00       0.00       5.52       2.18        0.02     0.49   0.271
  26                         8.05       0.00       0.00       5.53       2.10        0.04     0.82   0.260
  27                         8.05       0.00       0.00       5.53       2.10        0.04     0.80   0.261
  28                         8.05       5.39       0.00       6.57       3.93        0.10     1.66   0.292
  29                         8.05       2.18       0.00       5.96       2.76        0.07     1.15   0.269
  30                         8.05       7.68       0.00       6.91       5.66        0.05     0.84   0.360
  31                         8.05       0.00       0.00       5.54       2.01        0.07     1.35   0.250
  32                         8.05       0.00       0.00       5.55       1.96        0.10     1.86   0.243
  33                         8.05       0.00       0.00       5.51       2.22        0.02     0.39   0.276
  34                         8.05       4.26       0.00       6.42       3.66        0.08     1.29   0.297
  35                         8.05       0.00       0.00       5.54       2.04        0.06     1.18   0.253
  36                         8.05       3.73       0.00       6.34       3.07        0.18     3.04   0.261
  37                         8.05       0.00       0.00       5.55       1.98        0.09     1.67   0.246
  38                         8.05       0.00       0.00       5.54       2.04        0.06     1.14   0.254
  39                         8.05       0.00       0.00       5.54       2.02        0.07     1.31   0.251
  40                         8.05       1.04       0.00       5.79       2.32        0.09     1.66   0.255
  41                         8.05       0.00       0.00       5.53       2.10        0.04     0.80   0.261
  42                         8.05       0.00       0.00       5.53       2.08        0.05     0.92   0.258
  43                         8.05       0.00       0.00       5.47       2.36        0.01     0.17   0.293
  44                         8.05      51.15       0.00      10.29      37.83        0.14     2.28   0.639
  45                         8.05       0.00       0.00       5.51       2.19        0.02     0.45   0.272
  46                         8.05       3.03       0.00       6.18       3.16        0.07     1.18   0.285
  47                         8.05       0.00       0.00       5.52       2.18        0.02     0.48   0.271
  48                         8.05       1.53       0.00       5.87       2.68        0.04     0.79   0.280
  49                         8.05       0.00       0.00       5.53       2.09        0.04     0.87   0.259
  50                         8.05       2.53       0.00       6.08       3.03        0.05     0.96   0.286
  51                         8.05       2.09       0.00       5.99       2.81        0.06     1.09   0.277
  52                         8.05       0.00       0.00       5.53       2.09        0.04     0.87   0.259
  53                         8.05       1.05       0.00       5.77       2.48        0.04     0.82   0.273
  54                         8.05       0.00       0.00       5.51       2.23        0.02     0.37   0.276
  55                         8.05       2.25       0.00       5.99       3.15        0.03     0.48   0.305
  56                         8.05       3.35       0.00       6.23       3.27        0.07     1.20   0.287
  57                         8.05       0.00       0.00       5.55       1.96        0.10     1.82   0.244
  58                         8.05       0.00       0.00       5.51       2.19        0.02     0.45   0.272
  59                         8.05       0.00       0.00       5.51       2.22        0.02     0.38   0.276
  60                         8.05       5.01       0.00       6.45       4.69        0.02     0.41   0.359
  61                         8.05       0.00       0.00       5.56       1.74        0.31     5.35   0.216
  62                         8.05       0.00       0.00       5.56       1.73        0.33     5.59   0.215
  63                         8.05       0.00       0.00       5.51       2.20        0.02     0.43   0.274
  64                         8.05       0.00       0.00       5.52       2.17        0.03     0.52   0.270
  65                         8.05       0.00       0.00       5.53       2.12        0.04     0.72   0.263
  
  
  ****************************
  Subcatchment Washoff Summary
  ****************************
  
  ------------------------------------------------------------------------------------------
                                 COD         NH3-N            TN            TP            SS
  Subcatchment                    kg            kg            kg            kg            kg
  ------------------------------------------------------------------------------------------
  1                            2.995         0.000         0.000         0.000         0.000
  2                            0.000         0.000         0.000         0.000         0.000
  3                            0.000         0.000         0.000         0.000         0.000
  4                            3.898         0.000         0.000         0.000         0.000
  5                           10.241         0.000         0.000         0.000         0.000
  6                            6.553         0.000         0.000         0.000         0.000
  7                          150.241         0.000         0.000         0.000         0.000
  8                            5.772         0.000         0.000         0.000         0.000
  9                            9.853         0.000         0.000         0.000         0.000
  10                           8.518         0.000         0.000         0.000         0.000
  11                           3.031         0.000         0.000         0.000         0.000
  13                          16.806         0.000         0.000         0.000         0.000
  14                          14.569         0.000         0.000         0.000         0.000
  16                           8.587         0.000         0.000         0.000         0.000
  17                           5.114         0.000         0.000         0.000         0.000
  18                           5.885         0.000         0.000         0.000         0.000
  19                           3.736         0.000         0.000         0.000         0.000
  20                           7.548         0.000         0.000         0.000         0.000
  21                           9.610         0.000         0.000         0.000         0.000
  22                           8.390         0.000         0.000         0.000         0.000
  23                           1.240         0.000         0.000         0.000         0.000
  24                           3.303         0.000         0.000         0.000         0.000
  25                           1.887         0.000         0.000         0.000         0.000
  26                           3.057         0.000         0.000         0.000         0.000
  27                           2.992         0.000         0.000         0.000         0.000
  28                          17.380         0.000         0.000         0.000         0.000
  29                           8.340         0.000         0.000         0.000         0.000
  30                          10.109         0.000         0.000         0.000         0.000
  31                           4.974         0.000         0.000         0.000         0.000
  32                           6.750         0.000         0.000         0.000         0.000
  33                           1.495         0.000         0.000         0.000         0.000
  34                          10.445         0.000         0.000         0.000         0.000
  35                           4.352         0.000         0.000         0.000         0.000
  36                          23.007         0.000         0.000         0.000         0.000
  37                           6.065         0.000         0.000         0.000         0.000
  38                           4.231         0.000         0.000         0.000         0.000
  39                           4.808         0.000         0.000         0.000         0.000
  40                           7.869         0.000         0.000         0.000         0.000
  41                           2.979         0.000         0.000         0.000         0.000
  42                           3.419         0.000         0.000         0.000         0.000
  43                           0.701         0.000         0.000         0.000         0.000
  44                          33.417         0.000         0.000         0.000         0.000
  45                           1.729         0.000         0.000         0.000         0.000
  46                           8.503         0.000         0.000         0.000         0.000
  47                           1.844         0.000         0.000         0.000         0.000
  48                           4.291         0.000         0.000         0.000         0.000
  49                           3.252         0.000         0.000         0.000         0.000
  50                           6.166         0.000         0.000         0.000         0.000
  51                           6.439         0.000         0.000         0.000         0.000
  52                           3.252         0.000         0.000         0.000         0.000
  53                           4.050         0.000         0.000         0.000         0.000
  54                           1.436         0.000         0.000         0.000         0.000
  55                           3.093         0.000         0.000         0.000         0.000
  56                           9.290         0.000         0.000         0.000         0.000
  57                           6.619         0.000         0.000         0.000         0.000
  58                           1.744         0.000         0.000         0.000         0.000
  59                           1.451         0.000         0.000         0.000         0.000
  60                           4.083         0.000         0.000         0.000         0.000
  61                          18.338         0.000         0.000         0.000         0.000
  62                          19.101         0.000         0.000         0.000         0.000
  63                           1.642         0.000         0.000         0.000         0.000
  64                           1.972         0.000         0.000         0.000         0.000
  65                           2.700         0.000         0.000         0.000         0.000
  ------------------------------------------------------------------------------------------
  System                     555.162         0.000         0.000         0.000         0.000
  
  
  ******************
  Node Depth Summary
  ******************
  
  ---------------------------------------------------------------------------------
                                 Average  Maximum  Maximum  Time of Max    Reported
                                   Depth    Depth      HGL   Occurrence   Max Depth
  Node                 Type       Meters   Meters   Meters  days hr:min      Meters
  ---------------------------------------------------------------------------------
  WS01000070           JUNCTION     0.00     0.00     0.00     0  00:00        0.00
  WS01000323           JUNCTION     0.00     0.00     0.00     0  00:00        0.00
  WS01000533           JUNCTION     0.00     0.00     6.86     0  00:00        0.00
  WS01005172           JUNCTION     0.00     0.00     0.00     0  00:00        0.00
  WS01005181           JUNCTION     0.00     0.00     0.00     0  00:00        0.00
  WS01009841           JUNCTION     0.00     0.00     0.00     0  00:00        0.00
  WS02000078           JUNCTION     0.00     0.00     0.00     0  00:00        0.00
  WS02000112           JUNCTION     0.00     0.00     0.00     0  00:00        0.00
  WS02000136           JUNCTION     0.00     0.00     0.00     0  00:00        0.00
  WS02001211           JUNCTION     0.18     0.43     5.27     0  01:40        0.43
  WS02001212           JUNCTION     0.14     0.36     5.16     0  01:40        0.36
  WS02001213           JUNCTION     0.23     0.46     5.16     0  02:42        0.46
  WS02003059           JUNCTION     0.24     0.42     5.07     0  02:42        0.42
  WS02003060           JUNCTION     0.32     0.49     5.04     0  02:43        0.49
  WS02003066           JUNCTION     0.16     0.29     5.59     0  03:27        0.26
  WS02003067           JUNCTION     0.27     0.47     5.79     0  03:27        0.43
  WS02003071           JUNCTION     0.38     0.56     4.96     0  02:43        0.56
  WS02003072           JUNCTION     0.31     0.48     4.85     0  02:44        0.48
  WS02003073           JUNCTION     0.41     0.59     4.83     0  02:44        0.59
  WS02003076           JUNCTION     0.37     0.56     4.79     0  02:45        0.56
  WS02003077           JUNCTION     0.10     0.15     5.16     0  02:44        0.15
  WS02003078           JUNCTION     0.03     0.05     6.95     0  02:32        0.05
  WS02003079           JUNCTION     0.09     0.14     7.05     0  02:32        0.14
  WS02003080           JUNCTION     0.19     0.26     5.29     0  02:44        0.26
  WS02003081           JUNCTION     0.24     0.33     5.37     0  02:43        0.33
  WS02003082           JUNCTION     0.22     0.33     5.41     0  02:43        0.33
  WS02003083           JUNCTION     0.26     0.37     5.46     0  02:42        0.37
  WS02003084           JUNCTION     0.26     0.38     5.48     0  02:42        0.38
  WS02003085           JUNCTION     0.20     0.31     5.48     0  02:42        0.31
  WS02003086           JUNCTION     0.22     0.33     5.53     0  02:42        0.33
  WS02003087           JUNCTION     0.23     0.35     5.57     0  02:41        0.35
  WS02003088           JUNCTION     0.20     0.31     5.60     0  02:38        0.31
  WS02003089           JUNCTION     0.15     0.23     5.69     0  02:38        0.23
  WS02003090           JUNCTION     0.19     0.28     5.75     0  02:37        0.28
  WS02003091           JUNCTION     0.11     0.17     5.97     0  02:39        0.17
  WS02003092           JUNCTION     0.01     0.01     7.65     0  01:24        0.01
  WS02003093           JUNCTION     0.02     0.02     7.36     0  01:55        0.02
  WS02003094           JUNCTION     0.09     0.13     7.35     0  02:27        0.13
  WS02003098           JUNCTION     0.05     0.08     7.25     0  02:28        0.08
  WS02003099           JUNCTION     0.11     0.16     7.20     0  02:30        0.16
  WS02003102           JUNCTION     0.09     0.14     7.17     0  02:29        0.14
  WS02003103           JUNCTION     0.11     0.17     7.14     0  02:30        0.17
  WS02003104           JUNCTION     0.10     0.16     7.12     0  02:31        0.16
  WS02003106           JUNCTION     0.11     0.16     7.09     0  02:31        0.16
  WS02003110           JUNCTION     0.11     0.16     7.41     0  02:30        0.16
  WS02003111           JUNCTION     0.10     0.15     7.24     0  02:30        0.15
  WS02003115           JUNCTION     0.13     0.19     7.09     0  02:30        0.19
  WS02003116           JUNCTION     0.15     0.23     6.94     0  02:30        0.23
  WS02003118           JUNCTION     0.13     0.20     6.82     0  02:31        0.20
  WS02003122           JUNCTION     0.19     0.31     6.68     0  02:35        0.31
  WS02003123           JUNCTION     0.12     0.24     6.68     0  02:35        0.24
  WS02003126           JUNCTION     0.06     0.16     6.68     0  02:35        0.16
  WS02003187           JUNCTION     0.21     0.33     6.66     0  02:36        0.33
  WS02003188           JUNCTION     0.26     0.39     6.65     0  02:36        0.39
  WS02003190           JUNCTION     0.25     0.38     6.63     0  02:36        0.38
  WS02003193           JUNCTION     0.24     0.37     6.61     0  02:36        0.37
  WS02003195           JUNCTION     0.24     0.36     6.58     0  02:37        0.36
  WS02003196           JUNCTION     0.26     0.37     6.55     0  02:37        0.37
  WS02003198           JUNCTION     0.25     0.35     6.52     0  02:38        0.35
  WS02003200           JUNCTION     0.16     0.25     6.41     0  02:39        0.25
  WS02003201           JUNCTION     0.16     0.24     6.38     0  02:39        0.24
  WS02003202           JUNCTION     0.17     0.26     6.32     0  02:38        0.26
  WS02003203           JUNCTION     0.11     0.17     6.17     0  02:37        0.16
  WS02003215           JUNCTION     0.11     0.18     7.04     0  02:30        0.18
  WS02004050           JUNCTION     0.25     0.37     4.59     0  02:45        0.36
  WS02004053           JUNCTION     0.00     0.00     0.00     0  00:00        0.00
  WS02004136           JUNCTION     0.06     0.21     6.94     0  00:01        0.18
  WS02004139           JUNCTION     0.13     0.37     5.33     0  01:39        0.37
  WS02004401           JUNCTION     0.28     0.50     6.50     0  03:24        0.50
  WS02004402           JUNCTION     0.29     0.51     6.47     0  03:24        0.51
  WS02004403           JUNCTION     0.27     0.50     6.43     0  03:24        0.50
  WS02004404           JUNCTION     0.35     0.58     6.43     0  03:25        0.58
  WS02004405           JUNCTION     0.36     0.58     6.42     0  03:24        0.58
  WS02004406           JUNCTION     0.33     0.55     6.38     0  03:25        0.55
  WS02004407           JUNCTION     0.32     0.52     6.32     0  03:25        0.51
  WS02004409           JUNCTION     0.31     0.50     6.27     0  03:25        0.49
  WS02004410           JUNCTION     0.30     0.47     6.19     0  03:26        0.47
  WS02004411           JUNCTION     0.28     0.44     6.12     0  03:26        0.44
  WS02004412           JUNCTION     0.23     0.37     6.01     0  03:26        0.37
  WS02004413           JUNCTION     0.24     0.39     5.86     0  03:27        0.39
  WS02004997           JUNCTION     6.11     6.39     8.00     0  03:00        6.33
  WS02005122           JUNCTION     0.06     0.09     9.61     0  02:24        0.09
  WS02005123           JUNCTION     0.05     0.08     9.54     0  02:24        0.08
  WS02005124           JUNCTION     0.05     0.07     9.34     0  02:25        0.07
  WS02005126           JUNCTION     0.08     0.12     9.22     0  02:25        0.12
  WS02005127           JUNCTION     0.07     0.11     9.14     0  02:26        0.11
  WS02005129           JUNCTION     0.07     0.12     9.05     0  02:25        0.12
  WS02005131           JUNCTION     0.08     0.13     8.89     0  02:26        0.13
  WS02005132           JUNCTION     0.11     0.17     8.81     0  02:26        0.17
  WS02005133           JUNCTION     0.10     0.16     8.77     0  02:27        0.16
  WS02005135           JUNCTION     0.09     0.15     8.71     0  02:26        0.15
  WS02005137           JUNCTION     0.12     0.19     8.61     0  02:27        0.19
  WS02005138           JUNCTION     0.13     0.19     8.54     0  02:28        0.19
  WS02005140           JUNCTION     0.10     0.15     8.47     0  02:28        0.15
  WS02005142           JUNCTION     0.12     0.19     8.35     0  02:28        0.19
  WS02005144           JUNCTION     0.11     0.18     8.23     0  02:28        0.18
  WS02005145           JUNCTION     0.15     0.22     8.12     0  02:29        0.22
  WS02005147           JUNCTION     0.11     0.18     8.05     0  02:29        0.18
  WS02005152           JUNCTION     0.13     0.19     7.91     0  02:29        0.19
  WS02005154           JUNCTION     0.09     0.14     7.78     0  02:29        0.14
  WS02005155           JUNCTION     0.13     0.20     7.51     0  02:30        0.20
  WS02005162           JUNCTION     0.11     0.21     8.21     0  03:41        0.21
  WS02005163           JUNCTION     0.12     0.18     8.22     0  03:42        0.18
  WS02005164           JUNCTION     0.11     0.15     8.23     0  03:43        0.15
  WS02005165           JUNCTION     0.08     0.11     8.29     0  02:27        0.11
  WS02005166           JUNCTION     0.08     0.11     8.38     0  02:26        0.11
  WS02005167           JUNCTION     0.10     0.14     8.44     0  02:26        0.14
  WS02005170           JUNCTION     0.07     0.10     8.50     0  02:26        0.10
  WS02005171           JUNCTION     0.08     0.11     8.58     0  02:25        0.11
  WS02005175           JUNCTION     0.07     0.10     8.67     0  02:25        0.10
  WS02005176           JUNCTION     0.07     0.09     8.71     0  02:27        0.09
  WS02005180           JUNCTION     0.08     0.11     8.76     0  02:26        0.11
  WS02005181           JUNCTION     0.07     0.09     8.79     0  02:25        0.09
  WS02005183           JUNCTION     0.04     0.06     8.92     0  02:24        0.06
  WS02005184           JUNCTION     0.05     0.08     8.99     0  02:23        0.08
  WS02005185           JUNCTION     0.04     0.06     9.08     0  02:23        0.06
  WS02005186           JUNCTION     0.04     0.06     9.17     0  02:22        0.06
  WS02005188           JUNCTION     0.12     0.26     8.20     0  03:41        0.25
  WS02005191           JUNCTION     0.15     0.30     8.20     0  03:41        0.29
  WS02005192           JUNCTION     0.16     0.33     8.20     0  03:41        0.33
  WS02005193           JUNCTION     0.16     0.36     8.18     0  03:40        0.35
  WS02005196           JUNCTION     0.17     0.34     8.19     0  03:40        0.34
  WS02006109           JUNCTION     0.33     0.60     7.22     0  03:21        0.60
  WS02006110           JUNCTION     0.31     0.54     7.14     0  03:22        0.53
  WS02006111           JUNCTION     0.16     0.30     6.88     0  03:22        0.30
  WS02006112           JUNCTION     0.31     0.54     6.66     0  03:23        0.54
  WS02006113           JUNCTION     0.26     0.48     7.07     0  03:23        0.44
  WS02006115           JUNCTION     0.27     0.49     6.59     0  03:23        0.49
  WS02006116           JUNCTION     0.29     0.51     6.55     0  03:23        0.51
  WS02006183           JUNCTION     0.00     0.00     0.00     0  00:00        0.00
  WS02006228           JUNCTION     0.33     0.62     7.27     0  03:21        0.62
  WS02006229           JUNCTION     0.30     0.60     7.29     0  03:21        0.59
  WS02006230           JUNCTION     0.29     0.61     7.36     0  03:21        0.60
  WS02006231           JUNCTION     0.22     0.50     7.40     0  03:21        0.50
  WS02006232           JUNCTION     0.21     0.46     7.49     0  03:20        0.45
  WS02006234           JUNCTION     0.21     0.45     7.61     0  03:20        0.45
  WS02006235           JUNCTION     0.26     0.52     7.69     0  03:20        0.52
  WS02006238           JUNCTION     0.26     0.53     7.71     0  03:20        0.53
  WS02006239           JUNCTION     0.27     0.50     7.71     0  03:20        0.50
  WS02006242           JUNCTION     0.27     0.50     7.80     0  03:41        0.50
  WS02006240           JUNCTION     0.22     0.43     7.72     0  03:42        0.43
  WS02006243           JUNCTION     0.20     0.43     7.85     0  03:41        0.42
  WS02006245           JUNCTION     0.20     0.44     7.93     0  03:41        0.43
  WS02006247           JUNCTION     0.23     0.47     7.98     0  03:41        0.47
  WS02006248           JUNCTION     0.18     0.43     8.02     0  03:40        0.43
  WS02006249           JUNCTION     0.21     0.47     8.07     0  03:40        0.45
  WS02006251           JUNCTION     0.20     0.47     8.14     0  03:40        0.46
  WS02006253           JUNCTION     0.15     0.38     8.18     0  03:40        0.38
  WS02618401           JUNCTION     0.00     0.00     0.00     0  00:00        0.00
  WS8802               JUNCTION     0.00     0.00     4.38     0  00:00        0.00
  WSA1649              JUNCTION     0.00     0.00     0.00     0  00:00        0.00
  WSF200               JUNCTION     0.16     0.28     5.38     0  03:27        0.28
  XR-Inflow            JUNCTION     5.95     6.27     8.08     0  03:00        6.19
  WS02004114           JUNCTION     6.10     6.33     7.93     0  03:00        6.30
  outfall-24           OUTFALL      0.11     0.15     5.65     0  03:00        0.15
  outfall-2            OUTFALL      0.00     0.00     7.00     0  00:00        0.00
  outfall-5            OUTFALL      0.00     0.00     7.67     0  00:00        0.00
  outfall-8            OUTFALL      0.00     0.00     8.00     0  00:00        0.00
  outfall-14           OUTFALL      0.00     0.00     7.66     0  00:00        0.00
  outfall-16           OUTFALL      0.00     0.00     8.39     0  00:00        0.00
  outfall-17           OUTFALL      0.00     0.00     8.15     0  00:00        0.00
  outfall-27           OUTFALL      0.00     0.09     7.99     0  03:00        0.08
  outfall-28           OUTFALL      0.01     0.11     7.41     0  02:59        0.11
  67                   OUTFALL      0.00     0.00    10.20     0  00:00        0.00
  12                   OUTFALL      0.25     0.36     0.36     0  02:45        0.36
  XR-storage           STORAGE      7.17     7.38     7.88     0  03:00        7.38
  CC-storage           STORAGE      1.66     5.22     8.40     0  03:00        5.21
  JK-storage           STORAGE      1.36     4.51     7.51     0  02:58        4.51
  
  
  *******************
  Node Inflow Summary
  *******************
  
  -------------------------------------------------------------------------------------------------
                                  Maximum  Maximum                  Lateral       Total        Flow
                                  Lateral    Total  Time of Max      Inflow      Inflow     Balance
                                   Inflow   Inflow   Occurrence      Volume      Volume       Error
  Node                 Type           MLD      MLD  days hr:min    10^6 ltr    10^6 ltr     Percent
  -------------------------------------------------------------------------------------------------
  WS01000070           JUNCTION      0.00     0.00     0  00:00           0           0       0.000 ltr
  WS01000323           JUNCTION      0.00     0.00     0  00:00           0           0       0.000 ltr
  WS01000533           JUNCTION      0.00     0.00     0  00:00           0           0       0.000 ltr
  WS01005172           JUNCTION      0.00     0.00     0  00:00           0           0       0.000 ltr
  WS01005181           JUNCTION      0.00     0.00     0  00:00           0           0       0.000 ltr
  WS01009841           JUNCTION      0.00     0.00     0  00:00           0           0       0.000 ltr
  WS02000078           JUNCTION      0.00     0.00     0  00:00           0           0       0.000 ltr
  WS02000112           JUNCTION      0.00     0.00     0  00:00           0           0       0.000 ltr
  WS02000136           JUNCTION      0.00     0.00     0  00:00           0           0       0.000 ltr
  WS02001211           JUNCTION      0.25    35.75     0  00:02      0.0407        1.84       0.202
  WS02001212           JUNCTION      0.21    35.15     0  00:04      0.0346        1.88       0.112
  WS02001213           JUNCTION      0.30    34.06     0  01:38      0.0489        1.93       0.164
  WS02003059           JUNCTION      0.23    36.94     0  00:05      0.0378        1.97       0.466
  WS02003060           JUNCTION      0.16    60.24     0  02:42      0.0252        4.85       0.379
  WS02003066           JUNCTION      0.08    59.76     0  03:27      0.0122        2.86       0.100
  WS02003067           JUNCTION      0.26    48.58     0  03:27      0.0395        2.85       0.254
  WS02003071           JUNCTION      0.35    60.05     0  02:43      0.0538        4.87       0.456
  WS02003072           JUNCTION      0.24    60.12     0  02:44      0.0382        4.89       0.276
  WS02003073           JUNCTION      0.07    76.13     0  02:44     0.00978        6.02       0.256
  WS02003076           JUNCTION      0.72    77.64     0  02:44        0.12        6.13       0.223
  WS02003077           JUNCTION      0.04    16.15     0  02:44      0.0059        1.14       0.148
  WS02003078           JUNCTION      0.03     4.18     0  02:32     0.00419       0.238      -0.004
  WS02003079           JUNCTION      0.04     3.62     0  02:31     0.00561       0.234       0.236
  WS02003080           JUNCTION      0.08    12.64     0  02:44      0.0113       0.896       0.353
  WS02003081           JUNCTION      0.03    12.59     0  02:43     0.00406       0.889       0.472
  WS02003082           JUNCTION      0.05    12.58     0  02:43     0.00692       0.889       0.443
  WS02003083           JUNCTION      0.02    12.56     0  02:42      0.0027       0.886       0.457
  WS02003084           JUNCTION      0.06    12.58     0  02:42     0.00885       0.886       0.311
  WS02003085           JUNCTION      0.02    12.53     0  02:42     0.00307       0.879       0.227
  WS02003086           JUNCTION      0.04    12.56     0  02:39     0.00599       0.879       0.335
  WS02003087           JUNCTION      0.06    12.66     0  02:38     0.00824       0.876       0.377
  WS02003088           JUNCTION      0.07    12.87     0  02:38      0.0105        0.87       0.285
  WS02003089           JUNCTION      0.08    13.34     0  02:37      0.0113       0.862       0.183
  WS02003090           JUNCTION      0.04    12.93     0  02:40     0.00647       0.852       0.197
  WS02003091           JUNCTION      0.01    12.76     0  02:39     0.00171       0.846       0.078
  WS02003092           JUNCTION      0.07     0.07     0  01:00     0.00989     0.00989       0.393
  WS02003093           JUNCTION      0.02     0.09     0  01:24     0.00306      0.0129       1.001
  WS02003094           JUNCTION      1.81     1.88     0  02:26       0.108       0.121       1.056
  WS02003098           JUNCTION      0.02     1.90     0  02:27     0.00293       0.123       0.574
  WS02003099           JUNCTION      0.07     1.96     0  02:28      0.0109       0.133       1.275
  WS02003102           JUNCTION      1.61     3.52     0  02:28      0.0884        0.22       0.582
  WS02003103           JUNCTION      0.02     3.53     0  02:29     0.00239       0.221       0.438
  WS02003104           JUNCTION      0.02     3.55     0  02:30     0.00302       0.223       0.364
  WS02003106           JUNCTION      0.05     3.59     0  02:31     0.00727       0.229       0.471
  WS02003110           JUNCTION      0.06     8.78     0  02:30     0.00906       0.566       0.113
  WS02003111           JUNCTION      0.02     8.51     0  02:30      0.0029       0.568       0.104
  WS02003115           JUNCTION      0.38     8.84     0  02:30      0.0267       0.594       0.103
  WS02003116           JUNCTION      0.08     8.96     0  02:30      0.0118       0.615       0.216
  WS02003118           JUNCTION      0.94     9.84     0  02:30      0.0549       0.668       0.262
  WS02003122           JUNCTION      0.07    10.00     0  02:31      0.0101       0.694       0.375
  WS02003123           JUNCTION      0.06     0.37     0  01:25      0.0093      0.0184       1.955
  WS02003126           JUNCTION      0.03     0.07     0  02:19     0.00529     0.00555       0.631
  WS02003187           JUNCTION      0.06     9.95     0  02:32     0.00906       0.697       0.338
  WS02003188           JUNCTION      0.41    10.31     0  02:33      0.0328       0.728       0.560
  WS02003190           JUNCTION      0.06    10.33     0  02:34     0.00956       0.733       0.523
  WS02003193           JUNCTION      0.83    11.04     0  02:34      0.0444       0.774       0.515
  WS02003195           JUNCTION      0.03    11.06     0  02:36      0.0053       0.775       0.524
  WS02003196           JUNCTION      0.02    11.06     0  02:37     0.00301       0.774       0.564
  WS02003198           JUNCTION      1.02    12.03     0  02:36      0.0633       0.833       0.660
  WS02003200           JUNCTION      0.07    12.11     0  02:39      0.0107       0.838       0.281
  WS02003201           JUNCTION      0.01    12.19     0  02:40     0.00183       0.838       0.107
  WS02003202           JUNCTION      0.02    12.22     0  02:37      0.0031        0.84       0.217
  WS02003203           JUNCTION      0.05    13.27     0  02:39     0.00692       0.845       0.082
  WS02003215           JUNCTION      0.06     8.89     0  02:30     0.00945       0.603       0.088
  WS02004050           JUNCTION      0.72    91.65     0  02:45       0.119        6.23       0.514
  WS02004053           JUNCTION      0.00     0.00     0  00:00           0           0       0.000 ltr
  WS02004136           JUNCTION      0.44    32.92     0  01:30      0.0703        1.74      -0.033
  WS02004139           JUNCTION      0.38    39.53     0  00:01      0.0619         1.8      -0.001
  WS02004401           JUNCTION      0.05    45.75     0  03:23     0.00897        2.29       0.265
  WS02004402           JUNCTION      0.22    45.70     0  03:24      0.0335        2.32       0.242
  WS02004403           JUNCTION      0.23    45.70     0  03:24      0.0349        2.35       0.205
  WS02004404           JUNCTION      0.24    45.71     0  03:24      0.0365        2.38       0.206
  WS02004405           JUNCTION      1.12    45.91     0  03:24      0.0662        2.44       0.302
  WS02004406           JUNCTION      1.78    46.72     0  03:24       0.125        2.56       0.433
  WS02004407           JUNCTION      0.11    46.62     0  03:25      0.0171        2.57       0.389
  WS02004409           JUNCTION      1.34    47.18     0  03:25       0.103        2.66       0.331
  WS02004410           JUNCTION      0.15    47.29     0  03:25      0.0226        2.67       0.339
  WS02004411           JUNCTION      0.25    47.52     0  03:26      0.0379         2.7       0.294
  WS02004412           JUNCTION      1.89    48.13     0  03:26       0.112        2.81       0.229
  WS02004413           JUNCTION      0.11    48.30     0  03:26      0.0172        2.82       0.214
  WS02004997           JUNCTION      0.42    59.81     0  03:00      0.0693        6.08       0.666
  WS02005122           JUNCTION      1.14     1.14     0  02:24      0.0695      0.0695       0.143
  WS02005123           JUNCTION      0.06     1.20     0  02:24     0.00977      0.0791       0.195
  WS02005124           JUNCTION      0.04     1.23     0  02:24     0.00611      0.0851       0.290
  WS02005126           JUNCTION      1.01     2.25     0  02:25      0.0634       0.148       0.362
  WS02005127           JUNCTION      0.05     2.30     0  02:25     0.00848       0.156       0.318
  WS02005129           JUNCTION      1.18     3.47     0  02:25      0.0657       0.221       0.232
  WS02005131           JUNCTION      0.04     3.51     0  02:25     0.00682       0.228       0.312
  WS02005132           JUNCTION      0.05     3.55     0  02:26     0.00808       0.235       0.441
  WS02005133           JUNCTION      0.06     3.61     0  02:26        0.01       0.244       0.378
  WS02005135           JUNCTION      1.72     5.32     0  02:26       0.099       0.342       0.217
  WS02005137           JUNCTION      0.04     5.36     0  02:27     0.00625       0.348       0.331
  WS02005138           JUNCTION      0.06     5.42     0  02:27      0.0101       0.357       0.411
  WS02005140           JUNCTION      0.06     5.48     0  02:28        0.01       0.365       0.238
  WS02005142           JUNCTION      1.91     7.36     0  02:28       0.108       0.472       0.253
  WS02005144           JUNCTION      0.06     7.42     0  02:28     0.00927        0.48       0.247
  WS02005145           JUNCTION      0.04     7.45     0  02:28     0.00618       0.485       0.352
  WS02005147           JUNCTION      0.05     7.50     0  02:29     0.00749       0.491       0.220
  WS02005152           JUNCTION      0.06     7.56     0  02:29     0.00981         0.5       0.256
  WS02005154           JUNCTION      0.85     8.36     0  02:29      0.0502       0.549       0.142
  WS02005155           JUNCTION      0.06     8.42     0  02:29        0.01       0.558       0.181
  WS02005162           JUNCTION      0.08     3.40     0  02:28      0.0127       0.299       0.351
  WS02005163           JUNCTION      0.13     3.33     0  02:27        0.02       0.287       0.360
  WS02005164           JUNCTION      0.50     3.21     0  02:26      0.0302       0.268       0.358
  WS02005165           JUNCTION      0.11     2.74     0  02:27      0.0168       0.238       0.310
  WS02005166           JUNCTION      0.11     2.64     0  02:26      0.0167       0.222       0.329
  WS02005167           JUNCTION      0.48     2.55     0  02:25      0.0307       0.206       0.478
  WS02005170           JUNCTION      0.09     2.09     0  02:26       0.013       0.176       0.352
  WS02005171           JUNCTION      0.02     2.01     0  02:25     0.00326       0.164       0.373
  WS02005175           JUNCTION      0.73     2.00     0  02:25      0.0394       0.161       0.306
  WS02005176           JUNCTION      0.08     1.28     0  02:26      0.0123       0.122       0.448
  WS02005180           JUNCTION      0.11     1.21     0  02:25      0.0172       0.111       0.621
  WS02005181           JUNCTION      0.13     1.11     0  02:24      0.0203      0.0938       0.467
  WS02005183           JUNCTION      0.03     1.00     0  02:23     0.00433      0.0737       0.271
  WS02005184           JUNCTION      0.09     0.97     0  02:23       0.013      0.0696       0.292
  WS02005185           JUNCTION      0.07     0.90     0  02:23      0.0111      0.0567       0.196
  WS02005186           JUNCTION      0.83     0.83     0  02:23      0.0456      0.0456       0.119
  WS02005188           JUNCTION      0.03     3.43     0  03:43     0.00497       0.305       0.227
  WS02005191           JUNCTION      0.06     4.15     0  03:43     0.00844       0.315       0.327
  WS02005192           JUNCTION      1.92     5.65     0  03:42       0.116       0.432       0.283
  WS02005193           JUNCTION      0.09     7.16     0  03:41      0.0146       0.469       0.235
  WS02005196           JUNCTION      0.12     6.08     0  03:42       0.019       0.452       0.271
  WS02006109           JUNCTION      0.08    44.95     0  03:21      0.0135        2.07       0.319
  WS02006110           JUNCTION      0.08    44.97     0  03:22      0.0132        2.08       0.310
  WS02006111           JUNCTION      0.24    46.12     0  03:23      0.0366        2.23       0.084
  WS02006112           JUNCTION      0.18    46.04     0  03:23      0.0273        2.25       0.270
  WS02006113           JUNCTION      2.01    45.67     0  03:22       0.126         2.2       0.241
  WS02006115           JUNCTION      0.08    45.98     0  03:23      0.0134        2.26       0.271
  WS02006116           JUNCTION      0.24    45.93     0  03:23       0.036        2.29       0.271
  WS02006183           JUNCTION      0.00     0.00     0  00:00           0           0       0.000 ltr
  WS02006228           JUNCTION      2.45    44.92     0  03:21       0.168        2.06       0.222
  WS02006229           JUNCTION      0.13    43.09     0  03:21        0.02         1.9       0.182
  WS02006230           JUNCTION      0.07    43.11     0  03:21      0.0116        1.88       0.168
  WS02006231           JUNCTION      0.13    43.23     0  03:20      0.0205        1.87       0.098
  WS02006232           JUNCTION      1.37    43.21     0  03:20      0.0817        1.85       0.099
  WS02006234           JUNCTION      0.14    42.78     0  03:20      0.0216        1.77       0.104
  WS02006235           JUNCTION      0.14    42.75     0  03:20      0.0223        1.75       0.067
  WS02006238           JUNCTION      0.15    42.82     0  03:20      0.0235        1.73       0.110
  WS02006239           JUNCTION      0.11    30.09     0  03:42      0.0174        1.29       0.211
  WS02006242           JUNCTION      0.08    30.87     0  03:41      0.0129        1.27       0.262
  WS02006240           JUNCTION      0.06    30.34     0  03:41     0.00992        1.27       0.163
  WS02006243           JUNCTION      0.17    31.34     0  03:41      0.0269        1.25       0.147
  WS02006245           JUNCTION      0.07    31.43     0  03:41      0.0113        1.23       0.128
  WS02006247           JUNCTION      1.00    31.62     0  03:40      0.0791        1.22       0.134
  WS02006248           JUNCTION      0.12    31.39     0  03:40      0.0192        1.14       0.087
  WS02006249           JUNCTION      0.19    31.59     0  03:40      0.0286        1.12       0.165
  WS02006251           JUNCTION      0.54    31.77     0  03:40      0.0359         1.1       0.143
  WS02006253           JUNCTION      0.11    34.65     0  03:40      0.0173        1.07       0.053
  WS02618401           JUNCTION      0.00     0.00     0  00:00           0           0       0.000 ltr
  WS8802               JUNCTION      0.00     0.00     0  00:00           0           0       0.000 ltr
  WSA1649              JUNCTION      0.00     0.00     0  00:00           0           0       0.000 ltr
  WSF200               JUNCTION      0.14    55.76     0  03:27      0.0216        2.87       0.088
  XR-Inflow            JUNCTION     59.40    59.40     0  03:00        6.04        6.04       0.400
  WS02004114           JUNCTION      0.57    60.35     0  03:00      0.0916        6.14       0.414
  outfall-24           OUTFALL       0.00    60.35     0  03:00           0        4.41       0.000
  outfall-2            OUTFALL       0.00     0.00     0  00:00           0           0       0.000 ltr
  outfall-5            OUTFALL       0.00     0.00     0  00:00           0           0       0.000 ltr
  outfall-8            OUTFALL       0.00     0.00     0  00:00           0           0       0.000 ltr
  outfall-14           OUTFALL       0.00     0.00     0  00:00           0           0       0.000 ltr
  outfall-16           OUTFALL       0.00     0.00     0  00:00           0           0       0.000 ltr
  outfall-17           OUTFALL       0.00     0.00     0  00:00           0           0       0.000 ltr
  outfall-27           OUTFALL       0.00     4.77     0  03:00           0     0.00791       0.000
  outfall-28           OUTFALL       0.00     5.70     0  02:59           0       0.049       0.000
  67                   OUTFALL       0.00     0.00     0  00:00           0           0       0.000 ltr
  12                   OUTFALL       0.00    77.48     0  02:45           0         6.2       0.000
  XR-storage           STORAGE       0.00    60.35     0  03:00           0        6.11      -0.458
  CC-storage           STORAGE       6.97     6.97     0  02:31         0.6         0.6      -2.642
  JK-storage           STORAGE       6.59     6.59     0  02:31       0.505       0.505      -3.097
  
  
  **********************
  Node Surcharge Summary
  **********************
  
  Surcharging occurs when water rises above the top of the highest conduit.
  ---------------------------------------------------------------------
                                               Max. Height   Min. Depth
                                   Hours       Above Crown    Below Rim
  Node                 Type      Surcharged         Meters       Meters
  ---------------------------------------------------------------------
  WS01000070           JUNCTION        4.00          0.000        0.000
  WS01000323           JUNCTION        4.00          0.000        0.000
  WS01000533           JUNCTION        4.00          0.000        2.147
  WS01005172           JUNCTION        4.00          0.000        0.000
  WS01005181           JUNCTION        4.00          0.000        0.000
  WS01009841           JUNCTION        4.00          0.000        0.000
  WS02000078           JUNCTION        4.00          0.000        0.000
  WS02000112           JUNCTION        4.00          0.000        0.000
  WS02000136           JUNCTION        4.00          0.000        0.000
  WS02004053           JUNCTION        4.00          0.000        0.000
  WS02004997           JUNCTION        3.62          5.493        0.507
  WS02006183           JUNCTION        4.00          0.000        0.000
  WS02618401           JUNCTION        4.00          0.000        0.000
  WS8802               JUNCTION        4.00          0.000        4.942
  WSA1649              JUNCTION        4.00          0.000        0.000
  XR-Inflow            JUNCTION        3.62          5.374        0.276
  WS02004114           JUNCTION        3.63          5.429        1.086
  
  
  *********************
  Node Flooding Summary
  *********************
  
  No nodes were flooded.
  
  
  **********************
  Storage Volume Summary
  **********************
  
  --------------------------------------------------------------------------------------------------
                         Average     Avg  Evap Exfil       Maximum     Max    Time of Max    Maximum
                          Volume    Pcnt  Pcnt  Pcnt        Volume    Pcnt     Occurrence    Outflow
  Storage Unit           1000 m3    Full  Loss  Loss       1000 m3    Full    days hr:min        MLD
  --------------------------------------------------------------------------------------------------
  XR-storage               0.058      93     0     0         0.060      96       0  03:00      60.35
  CC-storage               0.047      30     0     0         0.147      93       0  03:00      34.56
  JK-storage               0.038      28     0     0         0.128      94       0  02:58      34.56
  
  
  ***********************
  Outfall Loading Summary
  ***********************
  
  ---------------------------------------------------------------------------------------------------------------------------------
                         Flow       Avg       Max       Total         Total         Total         Total         Total         Total
                         Freq      Flow      Flow      Volume           COD         NH3-N            TN            TP            SS
  Outfall Node           Pcnt       MLD       MLD    10^6 ltr            kg            kg            kg            kg            kg
  ---------------------------------------------------------------------------------------------------------------------------------
  outfall-24            95.57     37.61     60.35       4.413       492.157         0.000         0.000         0.000         0.000
  outfall-2              0.00      0.00      0.00       0.000         0.000         0.000         0.000         0.000         0.000
  outfall-5              0.00      0.00      0.00       0.000         0.000         0.000         0.000         0.000         0.000
  outfall-8              0.00      0.00      0.00       0.000         0.000         0.000         0.000         0.000         0.000
  outfall-14             0.00      0.00      0.00       0.000         0.000         0.000         0.000         0.000         0.000
  outfall-16             0.00      0.00      0.00       0.000         0.000         0.000         0.000         0.000         0.000
  outfall-17             0.00      0.00      0.00       0.000         0.000         0.000         0.000         0.000         0.000
  outfall-27             2.79      2.35      4.77       0.008         0.782         0.000         0.000         0.000         0.000
  outfall-28             9.07      4.49      5.70       0.049         4.411         0.000         0.000         0.000         0.000
  67                     0.00      0.00      0.00       0.000         0.000         0.000         0.000         0.000         0.000
  12                   100.00     40.30     77.48       6.200       764.577         0.000         0.000         0.000         0.000
  ---------------------------------------------------------------------------------------------------------------------------------
  System                18.86     84.76    124.76      10.670      1261.927         0.000         0.000         0.000         0.000
  
  
  ********************
  Link Flow Summary
  ********************
  
  -----------------------------------------------------------------------------
                                 Maximum  Time of Max   Maximum    Max/    Max/
                                  |Flow|   Occurrence   |Veloc|    Full    Full
  Link                 Type          MLD  days hr:min     m/sec    Flow   Depth
  -----------------------------------------------------------------------------
  WSL49                CONDUIT     76.92     0  02:44      1.75    0.96    0.48
  WSL50                CONDUIT     12.64     0  02:44      1.69    0.87    0.35
  WSL51                CONDUIT     12.57     0  02:44      1.04    1.28    0.50
  WSL52                CONDUIT     12.57     0  02:43      0.90    0.59    0.55
  WSL53                CONDUIT     12.54     0  02:43      0.84    1.30    0.59
  WSL54                CONDUIT     12.54     0  02:42      0.77    1.00    0.63
  WSL55                CONDUIT     12.53     0  02:42      0.85    0.33    0.58
  WSL77                CONDUIT     12.51     0  02:42      0.94    0.65    0.54
  WSL78                CONDUIT     12.53     0  02:39      0.88    0.82    0.57
  WSL79                CONDUIT     12.62     0  02:38      0.93    0.43    0.55
  WSL80                CONDUIT     12.81     0  02:38      1.22    0.30    0.45
  WSL81                CONDUIT     13.28     0  02:37      1.37    0.98    0.42
  WSL82                CONDUIT     12.89     0  02:40      1.58    0.17    0.37
  WSL83                CONDUIT     12.76     0  02:39      2.35    0.16    0.28
  WSL84                CONDUIT      8.73     0  02:30      1.39    0.27    0.30
  WSL85                CONDUIT      0.42     0  01:25      0.40    0.01    0.55
  WSL86                CONDUIT      0.07     0  03:17      0.20    0.00    0.40
  WSL122               CONDUIT     10.32     0  02:36      0.65    1.03    0.62
  WSL123               CONDUIT     13.23     0  02:39      1.75    0.49    0.35
  WSL144               CONDUIT      9.91     0  02:33      0.65    0.39    0.60
  WSL145               CONDUIT     10.28     0  02:34      0.63    0.97    0.64
  WSL146               CONDUIT     11.03     0  02:36      0.72    0.81    0.60
  WSL147               CONDUIT     11.05     0  02:37      0.71    0.57    0.61
  WSL148               CONDUIT     11.06     0  02:37      0.72    1.05    0.60
  WSL149               CONDUIT     12.04     0  02:39      0.99    1.58    0.50
  WSL150               CONDUIT     12.18     0  02:40      1.33    0.40    0.40
  WSL151               CONDUIT     12.20     0  02:37      1.32    0.31    0.41
  WSL500               CONDUIT      7.56     0  02:30      1.36    0.25    0.28
  WSL502               CONDUIT      8.36     0  02:29      1.43    0.13    0.29
  WSL508               CONDUIT      3.41     0  03:43      0.72    0.13    0.39
  WSL509               CONDUIT      3.32     0  02:28      0.70    0.15    0.31
  WSL551               CONDUIT      3.47     0  02:25      0.97    0.08    0.20
  WSL553               CONDUIT      3.51     0  02:26      0.74    0.10    0.25
  WSL554               CONDUIT      3.55     0  02:26      0.67    0.18    0.27
  WSL555               CONDUIT      3.61     0  02:27      0.75    0.15    0.25
  WSL1465              CONDUIT     35.22     0  00:05      1.99    0.32    0.46
  WSL1472              CONDUIT     59.90     0  02:44      1.49    0.68    0.43
  WSL1475              CONDUIT     90.94     0  02:45      2.48    0.97    0.33
  WSL1476              CONDUIT     16.08     0  02:44      1.06    0.08    0.46
  WSL1477              CONDUIT      4.16     0  02:32      1.70    0.16    0.16
  WSL1490              CONDUIT     34.94     0  00:04      1.60    0.57    0.40
  WSL1491              CONDUIT     33.76     0  01:38      1.86    0.20    0.41
  WSL1492              CONDUIT     36.71     0  00:05      1.71    0.57    0.44
  WSL1506              CONDUIT      0.07     0  01:24      0.40    0.00    0.02
  WSL1507              CONDUIT      0.09     0  01:53      0.21    0.00    0.09
  WSL1508              CONDUIT      1.88     0  02:27      0.56    0.05    0.13
  WSL1512              CONDUIT      1.90     0  02:28      0.42    0.01    0.12
  WSL1513              CONDUIT      1.96     0  02:31      0.35    0.12    0.19
  WSL1515              CONDUIT     59.69     0  03:27      2.35    0.58    0.31
  WSL1516              CONDUIT      3.72     0  02:32      1.56    0.01    0.16
  WSL1518              CONDUIT      3.52     0  02:29      0.60    0.07    0.19
  WSL1519              CONDUIT      3.54     0  02:31      0.57    0.09    0.20
  WSL1521              CONDUIT      3.59     0  02:31      0.64    0.10    0.19
  WSL1525              CONDUIT      8.49     0  02:30      1.66    0.16    0.26
  WSL1526              CONDUIT      8.49     0  02:30      1.44    0.14    0.29
  WSL1529              CONDUIT      8.84     0  02:30      1.38    0.23    0.31
  WSL1530              CONDUIT      8.96     0  02:31      1.29    0.48    0.43
  WSL1532              CONDUIT      9.84     0  02:31      1.03    0.24    0.42
  WSL1543              CONDUIT      3.53     0  02:30      0.55    0.11    0.20
  WSL1545              CONDUIT      9.90     0  02:32      0.76    0.41    0.54
  WSL1641              CONDUIT      3.21     0  02:27      0.66    0.13    0.27
  WSL1642              CONDUIT      2.74     0  02:27      0.69    0.08    0.22
  WSL1643              CONDUIT      2.64     0  02:27      0.82    0.08    0.19
  WSL1644              CONDUIT      2.55     0  02:26      0.67    0.13    0.21
  WSL1646              CONDUIT      2.09     0  02:26      0.60    0.06    0.20
  WSL1647              CONDUIT      2.01     0  02:26      0.71    0.07    0.17
  WSL1652              CONDUIT      1.28     0  02:27      0.54    0.08    0.20
  WSL1764              CONDUIT      8.89     0  02:30      1.22    0.17    0.34
  WSL1931              CONDUIT      1.21     0  02:26      0.50    0.10    0.20
  WSL1932              CONDUIT      1.11     0  02:25      0.46    0.07    0.20
  WSL1934              CONDUIT      1.00     0  02:24      0.60    0.03    0.15
  WSL1935              CONDUIT      0.97     0  02:23      0.68    0.05    0.14
  WSL1961              CONDUIT     39.15     0  00:01      3.75    0.08    0.27
  WSL1964              CONDUIT     35.50     0  00:02      1.79    0.19    0.33
  WSL2010              CONDUIT     45.52     0  03:24      1.33    0.58    0.51
  WSL2011              CONDUIT     45.52     0  03:24      1.21    0.29    0.54
  WSL2012              CONDUIT     45.60     0  03:24      1.11    0.69    0.58
  WSL2013              CONDUIT     45.81     0  03:24      1.16    1.14    0.56
  WSL2014              CONDUIT     46.53     0  03:25      1.27    0.74    0.53
  WSL2015              CONDUIT     46.52     0  03:25      1.35    0.62    0.51
  WSL2016              CONDUIT     47.17     0  03:25      1.45    0.54    0.48
  WSL2017              CONDUIT     47.32     0  03:26      1.57    0.58    0.46
  WSL2018              CONDUIT     48.20     0  03:26      2.02    0.29    0.38
  WSL2019              CONDUIT     48.37     0  03:27      1.85    0.29    0.43
  WSL2028              CONDUIT     45.52     0  03:24      1.32    0.49    0.51
  WSL2029              CONDUIT     47.59     0  03:26      1.84    0.60    0.41
  WSL2031              CONDUIT      0.90     0  02:23      0.64    0.03    0.14
  WSL2032              CONDUIT      0.83     0  02:23      0.76    0.06    0.16
  WSL2034              CONDUIT      4.10     0  03:43      0.63    0.12    0.46
  WSL2037              CONDUIT      5.27     0  03:42      0.63    0.27    0.52
  WSL2038              CONDUIT      5.98     0  03:42      0.76    0.30    0.56
  WSL2039              CONDUIT      8.83     0  03:41      1.15    0.45    0.61
  WSL2041              CONDUIT      7.08     0  03:41      0.87    0.35    0.58
  WSL2124              CONDUIT      5.32     0  02:27      0.97    0.13    0.28
  WSL2126              CONDUIT      5.36     0  02:27      0.82    0.21    0.31
  WSL2127              CONDUIT      5.42     0  02:28      0.97    0.29    0.28
  WSL2128              CONDUIT      5.47     0  02:28      0.98    0.13    0.28
  WSL2130              CONDUIT      7.36     0  02:28      1.16    0.22    0.31
  WSL2146              CONDUIT      7.42     0  02:28      1.04    0.19    0.33
  WSL2147              CONDUIT      7.45     0  02:29      1.05    0.40    0.33
  WSL2148              CONDUIT      7.50     0  02:29      1.19    0.18    0.30
  WSL2294              CONDUIT     44.90     0  03:22      1.37    1.51    0.71
  WSL2295              CONDUIT     44.97     0  03:22      1.61    2.02    0.61
  WSL2296              CONDUIT     45.90     0  03:23      2.03    0.26    0.52
  WSL2297              CONDUIT     45.90     0  03:23      1.31    0.88    0.51
  WSL2298              CONDUIT     45.92     0  03:23      2.36    2.11    0.47
  WSL2301              CONDUIT     45.74     0  03:23      1.34    0.42    0.50
  WSL2302              CONDUIT     45.69     0  03:23      1.32    0.56    0.51
  WSL2357              CONDUIT      1.14     0  02:24      0.83    0.21    0.28
  WSL2358              CONDUIT      1.20     0  02:24      1.02    0.14    0.25
  WSL2359              CONDUIT      1.23     0  02:25      0.54    0.05    0.19
  WSL2361              CONDUIT      2.25     0  02:25      0.76    0.13    0.23
  WSL2362              CONDUIT      2.30     0  02:26      0.80    0.11    0.23
  WSL2441              CONDUIT     44.88     0  03:21      1.27    1.15    0.76
  WSL2442              CONDUIT     42.98     0  03:21      1.42    1.10    0.86
  WSL2443              CONDUIT     43.05     0  03:21      1.53    0.67    0.79
  WSL2444              CONDUIT     43.12     0  03:20      1.79    0.68    0.68
  WSL2446              CONDUIT     42.77     0  03:20      1.88    0.73    0.65
  WSL2447              CONDUIT     42.67     0  03:20      1.74    2.20    0.70
  WSL2448              CONDUIT     42.63     0  03:20      1.59    1.20    0.75
  WSL2449              CONDUIT     29.92     0  03:42      1.34    1.04    0.74
  WSL2450              CONDUIT     30.00     0  03:42      1.33    0.62    0.66
  WSL2451              CONDUIT     30.28     0  03:41      1.29    1.97    0.67
  WSL2452              CONDUIT     30.80     0  03:41      1.31    0.59    0.66
  WSL2454              CONDUIT     31.20     0  03:41      1.45    0.73    0.62
  WSL2478              CONDUIT     31.36     0  03:41      1.39    1.11    0.64
  WSL2479              CONDUIT     31.18     0  03:40      1.39    0.59    0.64
  WSL2480              CONDUIT     31.29     0  03:40      1.40    1.45    0.64
  WSL2482              CONDUIT     31.44     0  03:40      1.33    0.82    0.67
  WSL2484              CONDUIT     31.63     0  03:40      1.52    0.45    0.61
  WSL2493              CONDUIT     42.99     0  03:21      1.22    0.72    0.76
  WSL2867              CONDUIT     55.64     0  03:27      3.29    0.11    0.23
  WSL2868              CONDUIT     56.27     0  03:28      2.42    0.11    0.29
  5                    CONDUIT      2.00     0  02:25      0.77    0.09    0.21
  WSL348               CONDUIT     59.40     0  03:00      1.88    0.54    1.00
  WSL175               CONDUIT     59.81     0  03:00      2.17    2.01    1.00
  WSL1467              CONDUIT     59.74     0  02:43      1.55    0.32    0.44
  WSL1473              CONDUIT     60.00     0  02:44      1.54    0.25    0.45
  XRpipe               CONDUIT     60.35     0  03:00      8.80    0.15    1.00
  8                    CONDUIT      0.00     0  00:00      0.00    0.00    0.00
  19                   CONDUIT      0.00     0  00:00      0.00    0.00    0.00
  17                   CONDUIT      0.00     0  00:00      0.00    0.00    0.00
  4                    CONDUIT      0.00     0  00:00      0.00    0.00    0.00
  outletpipe           CONDUIT     60.35     0  03:00     13.49    0.20    0.31
  11                   CONDUIT      0.00     0  00:00      0.00    0.00    0.00
  20                   CONDUIT      0.00     0  00:00      0.00    0.00    0.00
  1                    CONDUIT      4.77     0  03:00      2.80    0.10    0.21
  28                   CONDUIT      5.70     0  02:59      2.28    0.17    0.28
  30                   CONDUIT      0.00     0  00:00      0.00    0.00    0.00
  2                    CONDUIT     77.48     0  02:45      3.50    0.28    0.36
  XR-Pump-1            PUMP         8.12     0  00:01              1.00
  XR-Pump-3            PUMP         8.12     0  00:01              1.00
  XR-Pump-2            PUMP         8.12     0  00:01              1.00
  XR-Pump-4            PUMP         8.12     0  00:01              1.00
  CC-Pump-1            PUMP        17.28     0  03:40              1.00
  CC-Pump-2            PUMP        17.28     0  02:00              1.00
  JK-Pump-1            PUMP        17.28     0  03:20              1.00
  JK-Pump-2            PUMP        17.28     0  03:20              1.00
  
  
  ***************************
  Flow Classification Summary
  ***************************
  
  -------------------------------------------------------------------------------------
                      Adjusted    ---------- Fraction of Time in Flow Class ---------- 
                       /Actual         Up    Down  Sub   Sup   Up    Down  Norm  Inlet 
  Conduit               Length    Dry  Dry   Dry   Crit  Crit  Crit  Crit  Ltd   Ctrl  
  -------------------------------------------------------------------------------------
  WSL49                   1.00   0.00  0.00  0.00  1.00  0.00  0.00  0.00  0.00  0.00
  WSL50                   1.00   0.00  0.00  0.00  0.08  0.92  0.00  0.00  0.00  0.00
  WSL51                   1.00   0.00  0.00  0.00  1.00  0.00  0.00  0.00  0.01  0.00
  WSL52                   1.00   0.00  0.00  0.00  1.00  0.00  0.00  0.00  0.09  0.00
  WSL53                   1.00   0.00  0.00  0.00  1.00  0.00  0.00  0.00  0.01  0.00
  WSL54                   1.00   0.00  0.00  0.00  1.00  0.00  0.00  0.00  0.00  0.00
  WSL55                   1.00   0.00  0.00  0.00  1.00  0.00  0.00  0.00  0.21  0.00
  WSL77                   1.00   0.00  0.00  0.00  1.00  0.00  0.00  0.00  0.00  0.00
  WSL78                   1.00   0.00  0.00  0.00  1.00  0.00  0.00  0.00  0.00  0.00
  WSL79                   1.00   0.00  0.00  0.00  1.00  0.00  0.00  0.00  0.38  0.00
  WSL80                   1.00   0.00  0.00  0.00  1.00  0.00  0.00  0.00  0.60  0.00
  WSL81                   1.00   0.00  0.00  0.00  1.00  0.00  0.00  0.00  0.00  0.00
  WSL82                   1.00   0.00  0.00  0.00  0.25  0.75  0.00  0.00  0.91  0.00
  WSL83                   1.00   0.00  0.00  0.00  0.00  1.00  0.00  0.00  0.58  0.00
  WSL84                   1.00   0.00  0.00  0.00  0.01  0.99  0.00  0.00  0.02  0.00
  WSL85                   1.00   0.00  0.00  0.00  1.00  0.00  0.00  0.00  0.12  0.00
  WSL86                   1.00   0.00  0.00  0.00  1.00  0.00  0.00  0.00  0.56  0.00
  WSL122                  1.00   0.00  0.00  0.00  1.00  0.00  0.00  0.00  0.00  0.00
  WSL123                  1.00   0.00  0.00  0.00  0.02  0.98  0.00  0.00  0.02  0.00
  WSL144                  1.00   0.00  0.00  0.00  1.00  0.00  0.00  0.00  0.28  0.00
  WSL145                  1.00   0.00  0.00  0.00  1.00  0.00  0.00  0.00  0.01  0.00
  WSL146                  1.00   0.00  0.00  0.00  1.00  0.00  0.00  0.00  0.03  0.00
  WSL147                  1.00   0.00  0.00  0.00  1.00  0.00  0.00  0.00  0.04  0.00
  WSL148                  1.00   0.00  0.00  0.00  1.00  0.00  0.00  0.00  0.00  0.00
  WSL149                  1.00   0.00  0.00  0.00  1.00  0.00  0.00  0.00  0.01  0.00
  WSL150                  1.00   0.00  0.00  0.00  0.49  0.51  0.00  0.00  0.00  0.00
  WSL151                  1.00   0.00  0.00  0.00  0.83  0.17  0.00  0.00  0.13  0.00
  WSL500                  1.00   0.00  0.00  0.00  0.01  0.99  0.00  0.00  0.00  0.00
  WSL502                  1.00   0.00  0.00  0.00  0.01  0.99  0.00  0.00  1.00  0.00
  WSL508                  1.00   0.00  0.00  0.00  1.00  0.00  0.00  0.00  0.11  0.00
  WSL509                  1.00   0.00  0.00  0.00  1.00  0.00  0.00  0.00  0.02  0.00
  WSL551                  1.00   0.00  0.00  0.00  0.50  0.50  0.00  0.00  0.88  0.00
  WSL553                  1.00   0.00  0.00  0.00  1.00  0.00  0.00  0.00  1.00  0.00
  WSL554                  1.00   0.00  0.00  0.00  1.00  0.00  0.00  0.00  0.24  0.00
  WSL555                  1.00   0.00  0.00  0.00  1.00  0.00  0.00  0.00  0.00  0.00
  WSL1465                 1.00   0.00  0.00  0.00  1.00  0.00  0.00  0.00  0.19  0.00
  WSL1472                 1.00   0.00  0.00  0.00  1.00  0.00  0.00  0.00  0.00  0.00
  WSL1475                 1.00   0.00  0.00  0.00  0.16  0.84  0.00  0.00  0.00  0.00
  WSL1476                 1.00   0.00  0.00  0.00  1.00  0.00  0.00  0.00  1.00  0.00
  WSL1477                 1.00   0.00  0.00  0.00  0.00  1.00  0.00  0.00  0.11  0.00
  WSL1490                 1.00   0.00  0.00  0.00  1.00  0.00  0.00  0.00  0.02  0.00
  WSL1491                 1.00   0.00  0.00  0.00  1.00  0.00  0.00  0.00  0.36  0.00
  WSL1492                 1.00   0.00  0.00  0.00  1.00  0.00  0.00  0.00  0.03  0.00
  WSL1506                 1.00   0.00  0.00  0.00  1.00  0.00  0.00  0.00  0.99  0.00
  WSL1507                 1.00   0.00  0.00  0.00  1.00  0.00  0.00  0.00  1.00  0.00
  WSL1508                 1.00   0.00  0.00  0.00  1.00  0.00  0.00  0.00  0.00  0.00
  WSL1512                 1.00   0.00  0.00  0.00  1.00  0.00  0.00  0.00  1.00  0.00
  WSL1513                 1.00   0.00  0.00  0.00  1.00  0.00  0.00  0.00  0.00  0.00
  WSL1515                 1.00   0.00  0.00  0.00  0.02  0.98  0.00  0.00  0.01  0.00
  WSL1516                 1.00   0.00  0.00  0.00  0.00  1.00  0.00  0.00  1.00  0.00
  WSL1518                 1.00   0.00  0.00  0.00  1.00  0.00  0.00  0.00  0.83  0.00
  WSL1519                 1.00   0.00  0.00  0.00  1.00  0.00  0.00  0.00  0.39  0.00
  WSL1521                 1.00   0.00  0.00  0.00  1.00  0.00  0.00  0.00  0.02  0.00
  WSL1525                 1.00   0.00  0.00  0.00  0.00  1.00  0.00  0.00  0.13  0.00
  WSL1526                 1.00   0.00  0.00  0.00  0.01  0.99  0.00  0.00  0.71  0.00
  WSL1529                 1.00   0.00  0.00  0.00  0.00  1.00  0.00  0.00  0.93  0.00
  WSL1530                 1.00   0.00  0.00  0.00  0.32  0.68  0.00  0.00  0.00  0.00
  WSL1532                 1.00   0.00  0.00  0.00  1.00  0.00  0.00  0.00  1.00  0.00
  WSL1543                 1.00   0.00  0.00  0.00  1.00  0.00  0.00  0.00  0.02  0.00
  WSL1545                 1.00   0.00  0.00  0.00  1.00  0.00  0.00  0.00  0.05  0.00
  WSL1641                 1.00   0.00  0.00  0.00  1.00  0.00  0.00  0.00  0.44  0.00
  WSL1642                 1.00   0.00  0.00  0.00  1.00  0.00  0.00  0.00  0.98  0.00
  WSL1643                 1.00   0.00  0.00  0.00  1.00  0.00  0.00  0.00  0.56  0.00
  WSL1644                 1.00   0.00  0.00  0.00  1.00  0.00  0.00  0.00  0.02  0.00
  WSL1646                 1.00   0.00  0.00  0.00  1.00  0.00  0.00  0.00  0.99  0.00
  WSL1647                 1.00   0.00  0.00  0.00  1.00  0.00  0.00  0.00  0.02  0.00
  WSL1652                 1.00   0.00  0.00  0.00  1.00  0.00  0.00  0.00  0.43  0.00
  WSL1764                 1.00   0.00  0.00  0.00  0.27  0.73  0.00  0.00  0.44  0.00
  WSL1931                 1.00   0.00  0.00  0.00  1.00  0.00  0.00  0.00  0.00  0.00
  WSL1932                 1.00   0.00  0.00  0.00  1.00  0.00  0.00  0.00  0.99  0.00
  WSL1934                 1.00   0.00  0.00  0.00  1.00  0.00  0.00  0.00  1.00  0.00
  WSL1935                 1.00   0.00  0.00  0.00  0.99  0.01  0.00  0.00  0.00  0.00
  WSL1961                 1.00   0.00  0.00  0.00  0.62  0.38  0.00  0.00  0.99  0.00
  WSL1964                 1.00   0.00  0.00  0.00  1.00  0.00  0.00  0.00  0.59  0.00
  WSL2010                 1.00   0.00  0.00  0.00  1.00  0.00  0.00  0.00  0.00  0.00
  WSL2011                 1.00   0.00  0.00  0.00  1.00  0.00  0.00  0.00  0.13  0.00
  WSL2012                 1.00   0.00  0.00  0.00  1.00  0.00  0.00  0.00  0.00  0.00
  WSL2013                 1.00   0.00  0.00  0.00  1.00  0.00  0.00  0.00  0.00  0.00
  WSL2014                 1.00   0.00  0.00  0.00  1.00  0.00  0.00  0.00  0.00  0.00
  WSL2015                 1.00   0.00  0.00  0.00  1.00  0.00  0.00  0.00  0.02  0.00
  WSL2016                 1.00   0.00  0.00  0.00  1.00  0.00  0.00  0.00  0.06  0.00
  WSL2017                 1.00   0.00  0.00  0.00  1.00  0.00  0.00  0.00  0.04  0.00
  WSL2018                 1.00   0.00  0.00  0.00  0.00  1.00  0.00  0.00  0.21  0.00
  WSL2019                 1.00   0.00  0.00  0.00  0.06  0.94  0.00  0.00  0.11  0.00
  WSL2028                 1.00   0.00  0.00  0.00  1.00  0.00  0.00  0.00  0.07  0.00
  WSL2029                 1.00   0.00  0.00  0.00  0.28  0.72  0.00  0.00  0.00  0.00
  WSL2031                 1.00   0.00  0.00  0.00  1.00  0.00  0.00  0.00  1.00  0.00
  WSL2032                 1.00   0.00  0.00  0.00  0.50  0.50  0.00  0.00  0.75  0.00
  WSL2034                 1.00   0.00  0.00  0.00  1.00  0.00  0.00  0.00  0.07  0.00
  WSL2037                 1.00   0.00  0.00  0.00  1.00  0.00  0.00  0.00  0.03  0.00
  WSL2038                 1.00   0.00  0.00  0.00  1.00  0.00  0.00  0.00  0.02  0.00
  WSL2039                 1.00   0.00  0.00  0.00  0.75  0.25  0.00  0.00  0.01  0.00
  WSL2041                 1.00   0.00  0.00  0.00  1.00  0.00  0.00  0.00  0.04  0.00
  WSL2124                 1.00   0.00  0.00  0.00  1.00  0.00  0.00  0.00  0.89  0.00
  WSL2126                 1.00   0.00  0.00  0.00  1.00  0.00  0.00  0.00  0.74  0.00
  WSL2127                 1.00   0.00  0.00  0.00  1.00  0.00  0.00  0.00  0.00  0.00
  WSL2128                 1.00   0.00  0.00  0.00  1.00  0.00  0.00  0.00  0.99  0.00
  WSL2130                 1.00   0.00  0.00  0.00  0.59  0.41  0.00  0.00  0.01  0.00
  WSL2146                 1.00   0.00  0.00  0.00  1.00  0.00  0.00  0.00  0.88  0.00
  WSL2147                 1.00   0.00  0.00  0.00  1.00  0.00  0.00  0.00  0.01  0.00
  WSL2148                 1.00   0.00  0.00  0.00  0.51  0.49  0.00  0.00  0.57  0.00
  WSL2294                 1.00   0.00  0.00  0.00  1.00  0.00  0.00  0.00  0.00  0.00
  WSL2295                 1.00   0.00  0.00  0.00  1.00  0.00  0.00  0.00  0.00  0.00
  WSL2296                 1.00   0.00  0.00  0.00  0.14  0.86  0.00  0.00  0.79  0.00
[...]
  XRpipe                  1.00   0.00  0.00  0.00  0.99  0.01  0.00  0.00  0.01  0.00
  8                       1.00   1.00  0.00  0.00  0.00  0.00  0.00  0.00  0.00  0.00
  19                      1.00   1.00  0.00  0.00  0.00  0.00  0.00  0.00  0.00  0.00
  17                      1.00   1.00  0.00  0.00  0.00  0.00  0.00  0.00  0.00  0.00
  4                       1.00   1.00  0.00  0.00  0.00  0.00  0.00  0.00  0.00  0.00
  outletpipe              1.00   0.04  0.00  0.00  0.00  0.96  0.00  0.00  0.00  0.00
  11                      1.00   1.00  0.00  0.00  0.00  0.00  0.00  0.00  0.00  0.00
  20                      1.00   1.00  0.00  0.00  0.00  0.00  0.00  0.00  0.00  0.00
  1                       1.00   0.97  0.00  0.00  0.00  0.03  0.00  0.00  0.01  0.00
  28                      1.00   0.91  0.00  0.00  0.00  0.09  0.00  0.00  0.05  0.00
  30                      1.00   1.00  0.00  0.00  0.00  0.00  0.00  0.00  0.00  0.00
  2                       1.00   0.00  0.00  0.00  0.00  1.00  0.00  0.00  0.31  0.00
  
  
  *************************
  Conduit Surcharge Summary
  *************************
  
  ----------------------------------------------------------------------------
                                                           Hours        Hours 
                         --------- Hours Full --------   Above Full   Capacity
  Conduit                Both Ends  Upstream  Dnstream   Normal Flow   Limited
  ----------------------------------------------------------------------------
  WSL51                       0.01      0.01      0.01      0.79         0.01
  WSL53                       0.01      0.01      0.01      0.82         0.01
  WSL54                       0.01      0.01      0.01      0.03         0.01
  WSL122                      0.01      0.01      0.01      0.23         0.01
  WSL148                      0.01      0.01      0.01      0.31         0.01
  WSL149                      0.01      0.01      0.01      1.07         0.01
  WSL2013                     0.01      0.01      0.01      0.07         0.01
  WSL2294                     0.01      0.01      0.01      0.23         0.01
  WSL2295                     0.01      0.01      0.01      0.75         0.01
  WSL2298                     0.01      0.01      0.01      0.87         0.01
  WSL2441                     0.01      0.01      0.01      0.09         0.01
  WSL2442                     0.01      0.01      0.01      0.07         0.01
  WSL2447                     0.01      0.01      0.01      0.68         0.01
  WSL2448                     0.01      0.01      0.01      0.10         0.01
  WSL2449                     0.01      0.01      0.01      0.02         0.01
  WSL2451                     0.01      0.01      0.01      0.43         0.01
  WSL2478                     0.01      0.01      0.01      0.02         0.01
  WSL2480                     0.01      0.01      0.01      0.06         0.01
  WSL348                      3.62      3.62      3.62      0.01         0.01
  WSL175                      3.62      3.62      3.63      2.12         2.32
  XRpipe                      3.63      3.63      3.72      0.01         0.01
  
  
  ***************
  Pumping Summary
  ***************
  
  ---------------------------------------------------------------------------------------------------------
                                                  Min       Avg       Max     Total     Power    % Time Off
                        Percent   Number of      Flow      Flow      Flow    Volume     Usage    Pump Curve
  Pump                 Utilized   Start-Ups       MLD       MLD       MLD  10^6 ltr     Kw-hr    Low   High
  ---------------------------------------------------------------------------------------------------------
  XR-Pump-1               54.17           6      0.00      3.64      8.12     0.417      2.32    0.0    0.0
  XR-Pump-3               54.17           6      0.00      3.64      8.12     0.417      2.32    0.0    0.0
  XR-Pump-2               54.17           6      0.00      3.64      8.12     0.417      2.32    0.0    0.0
  XR-Pump-4               54.17           6      0.00      3.64      8.12     0.417      2.32    0.0    0.0
  CC-Pump-1                8.33           1      0.00      6.08     17.28     0.084      0.74    0.0    0.0
  CC-Pump-2               45.83           4      0.00      6.02     17.28     0.506      4.27    0.0    0.0
  JK-Pump-1                8.33           1      0.00      6.80     17.28     0.094      0.69    0.0    0.0
  JK-Pump-2               33.33           4      0.00      5.28     17.28     0.327      3.18    0.0    0.0
  
  
  ***************************
  Link Pollutant Load Summary
  ***************************
  
  ------------------------------------------------------------------------------------------
                                 COD         NH3-N            TN            TP            SS
  Link                            kg            kg            kg            kg            kg
  ------------------------------------------------------------------------------------------
  WSL49                      730.404         0.000         0.000         0.000         0.000
  WSL50                      112.090         0.000         0.000         0.000         0.000
  WSL51                      110.610         0.000         0.000         0.000         0.000
  WSL52                      110.437         0.000         0.000         0.000         0.000
  WSL53                      109.748         0.000         0.000         0.000         0.000
  WSL54                      109.766         0.000         0.000         0.000         0.000
  WSL55                      108.607         0.000         0.000         0.000         0.000
  WSL77                      108.317         0.000         0.000         0.000         0.000
  WSL78                      107.681         0.000         0.000         0.000         0.000
  WSL79                      106.700         0.000         0.000         0.000         0.000
  WSL80                      105.227         0.000         0.000         0.000         0.000
  WSL81                      103.522         0.000         0.000         0.000         0.000
  WSL82                      102.646         0.000         0.000         0.000         0.000
  WSL83                      102.421         0.000         0.000         0.000         0.000
  WSL84                       59.477         0.000         0.000         0.000         0.000
  WSL85                        3.337         0.000         0.000         0.000         0.000
  WSL86                        0.945         0.000         0.000         0.000         0.000
  WSL122                      87.453         0.000         0.000         0.000         0.000
  WSL123                     101.348         0.000         0.000         0.000         0.000
  WSL144                      77.544         0.000         0.000         0.000         0.000
  WSL145                      86.319         0.000         0.000         0.000         0.000
  WSL146                      90.491         0.000         0.000         0.000         0.000
  WSL147                      90.915         0.000         0.000         0.000         0.000
  WSL148                      90.899         0.000         0.000         0.000         0.000
  WSL149                      99.347         0.000         0.000         0.000         0.000
  WSL150                     100.836         0.000         0.000         0.000         0.000
  WSL151                     101.046         0.000         0.000         0.000         0.000
  WSL500                      53.444         0.000         0.000         0.000         0.000
  WSL502                      57.911         0.000         0.000         0.000         0.000
  WSL508                      39.456         0.000         0.000         0.000         0.000
  WSL509                      37.367         0.000         0.000         0.000         0.000
  WSL551                      24.896         0.000         0.000         0.000         0.000
  WSL553                      25.975         0.000         0.000         0.000         0.000
  WSL554                      27.217         0.000         0.000         0.000         0.000
  WSL555                      28.788         0.000         0.000         0.000         0.000
  WSL1465                    237.885         0.000         0.000         0.000         0.000
  WSL1472                    587.020         0.000         0.000         0.000         0.000
  WSL1475                    748.590         0.000         0.000         0.000         0.000
  WSL1476                    138.516         0.000         0.000         0.000         0.000
  WSL1477                     24.718         0.000         0.000         0.000         0.000
  WSL1490                    217.537         0.000         0.000         0.000         0.000
  WSL1491                    224.873         0.000         0.000         0.000         0.000
  WSL1492                    231.285         0.000         0.000         0.000         0.000
  WSL1506                      1.646         0.000         0.000         0.000         0.000
  WSL1507                      2.135         0.000         0.000         0.000         0.000
  WSL1508                     13.486         0.000         0.000         0.000         0.000
  WSL1512                     13.935         0.000         0.000         0.000         0.000
  WSL1513                     15.606         0.000         0.000         0.000         0.000
  WSL1515                    338.879         0.000         0.000         0.000         0.000
  WSL1516                     25.430         0.000         0.000         0.000         0.000
  WSL1518                     21.973         0.000         0.000         0.000         0.000
  WSL1519                     22.732         0.000         0.000         0.000         0.000
  WSL1521                     23.845         0.000         0.000         0.000         0.000
  WSL1525                     60.928         0.000         0.000         0.000         0.000
  WSL1526                     61.359         0.000         0.000         0.000         0.000
  WSL1529                     64.363         0.000         0.000         0.000         0.000
  WSL1530                     67.752         0.000         0.000         0.000         0.000
  WSL1532                     72.482         0.000         0.000         0.000         0.000
  WSL1543                     22.275         0.000         0.000         0.000         0.000
  WSL1545                     76.211         0.000         0.000         0.000         0.000
  WSL1641                     34.131         0.000         0.000         0.000         0.000
  WSL1642                     31.280         0.000         0.000         0.000         0.000
  WSL1643                     28.576         0.000         0.000         0.000         0.000
  WSL1644                     25.884         0.000         0.000         0.000         0.000
  WSL1646                     22.825         0.000         0.000         0.000         0.000
  WSL1647                     20.728         0.000         0.000         0.000         0.000
  WSL1652                     17.158         0.000         0.000         0.000         0.000
  WSL1764                     65.905         0.000         0.000         0.000         0.000
  WSL1931                     15.187         0.000         0.000         0.000         0.000
  WSL1932                     12.409         0.000         0.000         0.000         0.000
  WSL1934                      9.075         0.000         0.000         0.000         0.000
  WSL1935                      8.372         0.000         0.000         0.000         0.000
  WSL1961                    201.619         0.000         0.000         0.000         0.000
  WSL1964                    210.909         0.000         0.000         0.000         0.000
  WSL2010                    261.015         0.000         0.000         0.000         0.000
  WSL2011                    266.352         0.000         0.000         0.000         0.000
  WSL2012                    271.908         0.000         0.000         0.000         0.000
  WSL2013                    277.358         0.000         0.000         0.000         0.000
  WSL2014                    297.336         0.000         0.000         0.000         0.000
  WSL2015                    299.047         0.000         0.000         0.000         0.000
  WSL2016                    314.219         0.000         0.000         0.000         0.000
  WSL2017                    317.013         0.000         0.000         0.000         0.000
  WSL2018                    330.850         0.000         0.000         0.000         0.000
  WSL2019                    333.126         0.000         0.000         0.000         0.000
  WSL2028                    255.907         0.000         0.000         0.000         0.000
  WSL2029                    322.503         0.000         0.000         0.000         0.000
  WSL2031                      6.220         0.000         0.000         0.000         0.000
  WSL2032                      4.380         0.000         0.000         0.000         0.000
  WSL2034                     40.398         0.000         0.000         0.000         0.000
  WSL2037                     41.874         0.000         0.000         0.000         0.000
  WSL2038                     51.494         0.000         0.000         0.000         0.000
  WSL2039                     57.423         0.000         0.000         0.000         0.000
  WSL2041                     54.832         0.000         0.000         0.000         0.000
  WSL2124                     36.465         0.000         0.000         0.000         0.000
  WSL2126                     37.417         0.000         0.000         0.000         0.000
  WSL2127                     38.938         0.000         0.000         0.000         0.000
  WSL2128                     40.527         0.000         0.000         0.000         0.000
  WSL2130                     48.471         0.000         0.000         0.000         0.000
  WSL2146                     49.930         0.000         0.000         0.000         0.000
  WSL2147                     50.782         0.000         0.000         0.000         0.000
  WSL2148                     51.938         0.000         0.000         0.000         0.000
  WSL2294                    232.349         0.000         0.000         0.000         0.000
  WSL2295                    233.821         0.000         0.000         0.000         0.000
  WSL2296                    243.658         0.000         0.000         0.000         0.000
  WSL2297                    247.956         0.000         0.000         0.000         0.000
  WSL2298                    237.591         0.000         0.000         0.000         0.000
  WSL2301                    249.515         0.000         0.000         0.000         0.000
  WSL2302                    255.060         0.000         0.000         0.000         0.000
  WSL2357                      7.989         0.000         0.000         0.000         0.000
  WSL2358                      9.605         0.000         0.000         0.000         0.000
  WSL2359                     10.603         0.000         0.000         0.000         0.000
  WSL2361                     18.351         0.000         0.000         0.000         0.000
  WSL2362                     19.714         0.000         0.000         0.000         0.000
  WSL2441                    230.665         0.000         0.000         0.000         0.000
  WSL2442                    189.849         0.000         0.000         0.000         0.000
  WSL2443                    188.177         0.000         0.000         0.000         0.000
  WSL2444                    184.790         0.000         0.000         0.000         0.000
  WSL2446                    182.738         0.000         0.000         0.000         0.000
  WSL2447                    179.237         0.000         0.000         0.000         0.000
  WSL2448                    175.493         0.000         0.000         0.000         0.000
  WSL2449                    139.286         0.000         0.000         0.000         0.000
  WSL2450                    136.680         0.000         0.000         0.000         0.000
  WSL2451                    135.295         0.000         0.000         0.000         0.000
  WSL2452                    133.605         0.000         0.000         0.000         0.000
  WSL2454                    129.263         0.000         0.000         0.000         0.000
  WSL2478                    127.516         0.000         0.000         0.000         0.000
  WSL2479                    120.599         0.000         0.000         0.000         0.000
  WSL2480                    117.457         0.000         0.000         0.000         0.000
  WSL2482                    113.136         0.000         0.000         0.000         0.000
  WSL2484                    108.433         0.000         0.000         0.000         0.000
  WSL2493                    192.710         0.000         0.000         0.000         0.000
  WSL2867                    340.558         0.000         0.000         0.000         0.000
  WSL2868                    344.180         0.000         0.000         0.000         0.000
  5                           20.266         0.000         0.000         0.000         0.000
  WSL348                     707.698         0.000         0.000         0.000         0.000
  WSL175                     714.754         0.000         0.000         0.000         0.000
  WSL1467                    580.501         0.000         0.000         0.000         0.000
  WSL1473                    591.817         0.000         0.000         0.000         0.000
  XRpipe                     727.960         0.000         0.000         0.000         0.000
  8                            0.000         0.000         0.000         0.000         0.000
  19                           0.000         0.000         0.000         0.000         0.000
  17                           0.000         0.000         0.000         0.000         0.000
  4                            0.000         0.000         0.000         0.000         0.000
  outletpipe                 492.157         0.000         0.000         0.000         0.000
  11                           0.000         0.000         0.000         0.000         0.000
  20                           0.000         0.000         0.000         0.000         0.000
  1                            0.782         0.000         0.000         0.000         0.000
  28                           4.411         0.000         0.000         0.000         0.000
  30                           0.000         0.000         0.000         0.000         0.000
  2                          764.577         0.000         0.000         0.000         0.000
  XR-Pump-1                   47.697         0.000         0.000         0.000         0.000
  XR-Pump-3                   47.697         0.000         0.000         0.000         0.000
  XR-Pump-2                   47.697         0.000         0.000         0.000         0.000
  XR-Pump-4                   47.697         0.000         0.000         0.000         0.000
  CC-Pump-1                    6.295         0.000         0.000         0.000         0.000
  CC-Pump-2                   43.434         0.000         0.000         0.000         0.000
  JK-Pump-1                    6.647         0.000         0.000         0.000         0.000
  JK-Pump-2                   26.242         0.000         0.000         0.000         0.000
  

  Analysis begun on:  Mon Oct 29 01:04:08 2018
  Analysis ended on:  Mon Oct 29 01:04:13 2018
  Total elapsed time: 00:00:05