
  EPA STORM WATER MANAGEMENT MODEL - VERSION 5.1 (Build 5.2.0.dev1)
  --------------------------------------------------------------

  
  *********************************************************
  NOTE: The summary statistics displayed in this report are
  based on results found at every computational time step,  
  not just on results from each reporting time step.
  *********************************************************
  
  ****************
  Analysis Options
  ****************
  Flow Units ............... MLD
  Process Models:
    Rainfall/Runoff ........ YES
    RDII ................... NO
    Snowmelt ............... NO
    Groundwater ............ NO
    Flow Routing ........... YES
    Ponding Allowed ........ NO
    Water Quality .......... YES
  Infiltration Method ...... GREEN_AMPT
  Flow Routing Method ...... DYNWAVE
  Starting Date ............ 08/28/2015 08:00:00
  Ending Date .............. 08/28/2015 12:00:00
  Antecedent Dry Days ...... 4.0
  Report Time Step ......... 00:01:00
  Wet Time Step ............ 00:01:00
  Dry Time Step ............ 00:01:00
  Routing Time Step ........ 5.00 sec
  Variable Time Step ....... YES
  Maximum Trials ........... 8
  Number of Threads ........ 1
  Head Tolerance ........... 0.001500 m
  
  
  **************************        Volume         Depth
  Runoff Quantity Continuity     hectare-m            mm
  **************************     ---------       -------
  Total Precipitation ......         5.093        15.406
  Evaporation Loss .........         0.000         0.000
  Infiltration Loss ........         2.326         7.035
  Surface Runoff ...........         1.223         3.699
  Final Storage ............         1.547         4.679
  Continuity Error (%) .....        -0.047
  
  
  **************************           COD         NH3-N            TN            TP            SS
  Runoff Quality Continuity             kg            kg            kg            kg            kg
  **************************    ----------    ----------    ----------    ----------    ----------
  Initial Buildup ..........     15404.640         0.000         0.000         0.000         0.000
  Surface Buildup ..........       130.330         0.000         0.000         0.000         0.000
  Wet Deposition ...........         0.000         0.000         0.000         0.000         0.000
  Sweeping Removal .........         0.000         0.000         0.000         0.000         0.000
  Infiltration Loss ........       196.684         0.000         0.000         0.000         0.000
  BMP Removal ..............         0.000         0.000         0.000         0.000         0.000
  Surface Runoff ...........      1873.997         0.000         0.000         0.000         0.000
  Remaining Buildup ........     13461.521         0.000         0.000         0.000         0.000
  Continuity Error (%) .....         0.018         0.000         0.000         0.000         0.000
  
  
  **************************        Volume        Volume
  Flow Routing Continuity        hectare-m      10^6 ltr
  **************************     ---------     ---------
  Dry Weather Inflow .......         0.000         0.000
  Wet Weather Inflow .......         1.220        12.197
  Groundwater Inflow .......         0.000         0.000
  RDII Inflow ..............         0.000         0.000
  External Inflow ..........         0.621         6.206
  External Outflow .........         1.739        17.387
  Flooding Loss ............         0.023         0.227
  Evaporation Loss .........         0.000         0.000
  Exfiltration Loss ........         0.000         0.000
  Initial Stored Volume ....         0.000         0.000
  Final Stored Volume ......         0.109         1.090
  Continuity Error (%) .....        -1.637
  
  
  **************************           COD         NH3-N            TN            TP            SS
  Quality Routing Continuity            kg            kg            kg            kg            kg
  **************************    ----------    ----------    ----------    ----------    ----------
  Dry Weather Inflow .......         0.000         0.000         0.000         0.000         0.000
  Wet Weather Inflow .......      1870.552         0.000         0.000         0.000         0.000
  Groundwater Inflow .......         0.000         0.000         0.000         0.000         0.000
  RDII Inflow ..............         0.000         0.000         0.000         0.000         0.000
  External Inflow ..........      1036.439         0.000         0.000         0.000         0.000
  External Outflow .........      2645.766         0.000         0.000         0.000         0.000
  Flooding Loss ............        39.033         0.000         0.000         0.000         0.000
  Exfiltration Loss ........         0.000         0.000         0.000         0.000         0.000
  Mass Reacted .............         0.000         0.000         0.000         0.000         0.000
  Initial Stored Mass ......         0.000         0.000         0.000         0.000         0.000
  Final Stored Mass ........       132.338         0.000         0.000         0.000         0.000
  Continuity Error (%) .....         3.091         0.000         0.000         0.000         0.000
  
  
  *************************
  Highest Continuity Errors
  *************************
  Node WS02003123 (5.42%)
  Node WS02003099 (1.20%)
  
  
  ***************************
  Time-Step Critical Elements
  ***************************
  Link outletpipe (92.13%)
  Link WSL2448 (5.97%)
  Link XRpipe (1.16%)
  
  
  ********************************
  Highest Flow Instability Indexes
  ********************************
  Link WSL1477 (42)
  Link WSL1516 (40)
  Link WSL84 (11)
  Link WSL1515 (8)
  Link WSL1521 (7)
  
  
  *************************
  Routing Time Step Summary
  *************************
  Minimum Time Step           :     0.45 sec
  Average Time Step           :     0.70 sec
  Maximum Time Step           :     5.00 sec
  Percent in Steady State     :    -0.00
  Average Iterations per Step :     2.34
  Percent Not Converging      :     4.52
  
  
  ***************************
  Subcatchment Runoff Summary
  ***************************
  
  --------------------------------------------------------------------------------------------------------
                            Total      Total      Total      Total      Total       Total     Peak  Runoff
                           Precip      Runon       Evap      Infil     Runoff      Runoff   Runoff   Coeff
  Subcatchment                 mm         mm         mm         mm         mm    10^6 ltr      MLD
  --------------------------------------------------------------------------------------------------------
  1                         15.41      15.94       0.00       8.73      13.63        0.16     3.03   0.435
  2                         15.41       0.00       0.00       7.12       4.82        0.16     3.42   0.313
  3                         15.41       0.00       0.00       7.15       4.58        0.23     4.88   0.298
  4                         15.41       0.00       0.00       7.10       4.96        0.13     2.79   0.322
  5                         15.41      11.91       0.00       8.54      11.16        0.19     3.60   0.408
  6                         15.41       0.00       0.00       7.15       4.60        0.23     4.75   0.299
  7                         15.41       0.00       0.00       6.62       3.98        6.36   114.21   0.258
  8                         15.41       0.00       0.00       7.14       4.69        0.20     4.16   0.304
  9                         15.41       4.62       0.00       7.79       6.61        0.25     4.93   0.330
  10                        15.41       9.41       0.00       8.14       9.33        0.17     3.15   0.376
  11                        15.41       0.00       0.00       7.07       5.14        0.10     2.16   0.334
  13                        15.41      93.30       0.00      11.17      80.35        0.13     2.40   0.739
  14                        15.41      85.92       0.00      11.48      75.05        0.15     2.96   0.741
  16                        15.41      19.04       0.00       8.46      15.68        0.11     1.73   0.455
  17                        15.41       0.00       0.00       7.13       4.77        0.17     3.68   0.309
  18                        15.41       0.00       0.00       7.14       4.67        0.20     4.25   0.303
  19                        15.41       0.00       0.00       7.10       4.99        0.13     2.67   0.324
  20                        15.41       4.50       0.00       7.74       6.84        0.19     3.79   0.344
  21                        15.41      12.56       0.00       8.52      11.51        0.17     3.26   0.412
  22                        15.41       9.34       0.00       8.28       9.75        0.17     3.31   0.394
  23                        15.41       0.00       0.00       6.94       5.88        0.04     0.89   0.381
  24                        15.41       0.00       0.00       7.08       5.08        0.11     2.36   0.330
  25                        15.41       0.00       0.00       7.01       5.52        0.06     1.35   0.358
  26                        15.41       0.00       0.00       7.07       5.14        0.10     2.18   0.333
  27                        15.41       0.00       0.00       7.07       5.15        0.10     2.13   0.334
  28                        15.41      14.73       0.00       8.80      11.46        0.30     5.51   0.380
  29                        15.41       6.22       0.00       7.83       7.55        0.18     3.41   0.349
  30                        15.41      18.24       0.00       9.01      16.19        0.15     2.88   0.481
  31                        15.41       0.00       0.00       7.12       4.79        0.17     3.57   0.311
  32                        15.41       0.00       0.00       7.15       4.58        0.23     4.90   0.297
  33                        15.41       0.00       0.00       6.97       5.71        0.05     1.07   0.371
  34                        15.41      10.30       0.00       8.42      10.01        0.21     3.95   0.389
  35                        15.41       0.00       0.00       7.11       4.88        0.15     3.12   0.317
  36                        15.41       9.43       0.00       8.42       8.07        0.48     9.00   0.325
  37                        15.41       0.00       0.00       7.14       4.65        0.21     4.38   0.302
  38                        15.41       0.00       0.00       7.11       4.90        0.14     3.03   0.318
  39                        15.41       0.00       0.00       7.12       4.81        0.16     3.45   0.312
  40                        15.41       2.55       0.00       7.51       5.73        0.22     4.53   0.319
  41                        15.41       0.00       0.00       7.07       5.16        0.10     2.12   0.335
  42                        15.41       0.00       0.00       7.09       5.05        0.12     2.44   0.328
  43                        15.41       0.00       0.00       6.84       6.41        0.02     0.51   0.416
  44                        15.41     134.37       0.00      13.64     111.96        0.41     7.99   0.748
  45                        15.41       0.00       0.00       7.00       5.59        0.06     1.24   0.363
  46                        15.41       7.92       0.00       8.11       8.68        0.19     3.55   0.372
  47                        15.41       0.00       0.00       7.01       5.53        0.06     1.32   0.359
  48                        15.41       3.88       0.00       7.59       7.11        0.11     2.25   0.369
  49                        15.41       0.00       0.00       7.08       5.09        0.11     2.32   0.330
  50                        15.41       6.17       0.00       7.89       8.12        0.14     2.81   0.376
  51                        15.41       5.10       0.00       7.79       7.39        0.16     3.12   0.360
  52                        15.41       0.00       0.00       7.08       5.09        0.11     2.32   0.330
  53                        15.41       2.70       0.00       7.44       6.45        0.11     2.31   0.356
  54                        15.41       0.00       0.00       6.97       5.75        0.05     1.03   0.373
  55                        15.41       5.80       0.00       7.71       8.85        0.07     1.46   0.418
  56                        15.41       8.72       0.00       8.19       9.05        0.19     3.67   0.375
  57                        15.41       0.00       0.00       7.15       4.59        0.23     4.80   0.298
  58                        15.41       0.00       0.00       7.00       5.58        0.06     1.25   0.362
  59                        15.41       0.00       0.00       6.97       5.74        0.05     1.04   0.372
  60                        15.41      12.62       0.00       8.31      13.84        0.07     1.40   0.494
  61                        15.41       0.00       0.00       7.22       3.94        0.71    14.35   0.256
  62                        15.41       0.00       0.00       7.22       3.91        0.74    15.03   0.254
  63                        15.41       0.00       0.00       6.99       5.63        0.05     1.17   0.366
  64                        15.41       0.00       0.00       7.02       5.48        0.07     1.41   0.356
  65                        15.41       0.00       0.00       7.06       5.23        0.09     1.93   0.339
  
  
  ****************************
  Subcatchment Washoff Summary
  ****************************
  
  ------------------------------------------------------------------------------------------
                                 COD         NH3-N            TN            TP            SS
  Subcatchment                    kg            kg            kg            kg            kg
  ------------------------------------------------------------------------------------------
  1                           23.186         0.000         0.000         0.000         0.000
  2                            0.000         0.000         0.000         0.000         0.000
  3                            0.000         0.000         0.000         0.000         0.000
  4                           20.289         0.000         0.000         0.000         0.000
  5                           56.645         0.000         0.000         0.000         0.000
  6                           32.990         0.000         0.000         0.000         0.000
  7                          814.126         0.000         0.000         0.000         0.000
  8                           29.256         0.000         0.000         0.000         0.000
  9                           54.124         0.000         0.000         0.000         0.000
  10                          56.808         0.000         0.000         0.000         0.000
  11                          16.111         0.000         0.000         0.000         0.000
  13                          43.713         0.000         0.000         0.000         0.000
  14                          47.786         0.000         0.000         0.000         0.000
  16                          44.059         0.000         0.000         0.000         0.000
  17                          26.118         0.000         0.000         0.000         0.000
  18                          29.797         0.000         0.000         0.000         0.000
  19                          19.509         0.000         0.000         0.000         0.000
  20                          42.378         0.000         0.000         0.000         0.000
  21                          57.796         0.000         0.000         0.000         0.000
  22                          49.256         0.000         0.000         0.000         0.000
  23                           7.226         0.000         0.000         0.000         0.000
  24                          17.429         0.000         0.000         0.000         0.000
  25                          10.503         0.000         0.000         0.000         0.000
  26                          16.238         0.000         0.000         0.000         0.000
  27                          15.921         0.000         0.000         0.000         0.000
  28                         109.342         0.000         0.000         0.000         0.000
  29                          50.762         0.000         0.000         0.000         0.000
  30                          47.900         0.000         0.000         0.000         0.000
  31                          25.445         0.000         0.000         0.000         0.000
  32                          33.932         0.000         0.000         0.000         0.000
  33                           8.533         0.000         0.000         0.000         0.000
  34                          59.830         0.000         0.000         0.000         0.000
  35                          22.468         0.000         0.000         0.000         0.000
  36                         132.621         0.000         0.000         0.000         0.000
  37                          30.657         0.000         0.000         0.000         0.000
  38                          21.885         0.000         0.000         0.000         0.000
  39                          24.654         0.000         0.000         0.000         0.000
  40                          42.417         0.000         0.000         0.000         0.000
  41                          15.857         0.000         0.000         0.000         0.000
  42                          17.985         0.000         0.000         0.000         0.000
  43                           4.357         0.000         0.000         0.000         0.000
  44                         122.674         0.000         0.000         0.000         0.000
  45                           9.714         0.000         0.000         0.000         0.000
  46                          51.861         0.000         0.000         0.000         0.000
  47                          10.289         0.000         0.000         0.000         0.000
  48                          25.333         0.000         0.000         0.000         0.000
  49                          17.180         0.000         0.000         0.000         0.000
  50                          36.054         0.000         0.000         0.000         0.000
  51                          37.056         0.000         0.000         0.000         0.000
  52                          17.180         0.000         0.000         0.000         0.000
  53                          23.443         0.000         0.000         0.000         0.000
  54                           8.231         0.000         0.000         0.000         0.000
  55                          19.434         0.000         0.000         0.000         0.000
  56                          56.608         0.000         0.000         0.000         0.000
  57                          33.305         0.000         0.000         0.000         0.000
  58                           9.786         0.000         0.000         0.000         0.000
  59                           8.307         0.000         0.000         0.000         0.000
  60                          22.948         0.000         0.000         0.000         0.000
  61                          90.337         0.000         0.000         0.000         0.000
  62                          94.139         0.000         0.000         0.000         0.000
  63                           9.276         0.000         0.000         0.000         0.000
  64                          10.928         0.000         0.000         0.000         0.000
  65                          14.505         0.000         0.000         0.000         0.000
  ------------------------------------------------------------------------------------------
  System                    2908.498         0.000         0.000         0.000         0.000
  
  
  ******************
  Node Depth Summary
  ******************
  
  ---------------------------------------------------------------------------------
                                 Average  Maximum  Maximum  Time of Max    Reported
                                   Depth    Depth      HGL   Occurrence   Max Depth
  Node                 Type       Meters   Meters   Meters  days hr:min      Meters
  ---------------------------------------------------------------------------------
  WS01000070           JUNCTION     0.00     0.00     0.00     0  00:00        0.00
  WS01000323           JUNCTION     0.00     0.00     0.00     0  00:00        0.00
  WS01000533           JUNCTION     0.00     0.00     6.86     0  00:00        0.00
  WS01005172           JUNCTION     0.00     0.00     0.00     0  00:00        0.00
  WS01005181           JUNCTION     0.00     0.00     0.00     0  00:00        0.00
  WS01009841           JUNCTION     0.00     0.00     0.00     0  00:00        0.00
  WS02000078           JUNCTION     0.00     0.00     0.00     0  00:00        0.00
  WS02000112           JUNCTION     0.00     0.00     0.00     0  00:00        0.00
  WS02000136           JUNCTION     0.00     0.00     0.00     0  00:00        0.00
  WS02001211           JUNCTION     0.32     0.53     5.37     0  03:11        0.53
  WS02001212           JUNCTION     0.28     0.55     5.35     0  03:11        0.54
  WS02001213           JUNCTION     0.37     0.65     5.35     0  03:10        0.65
  WS02003059           JUNCTION     0.38     0.70     5.35     0  03:24        0.67
  WS02003060           JUNCTION     0.46     0.79     5.34     0  03:24        0.79
  WS02003066           JUNCTION     0.22     0.39     5.69     0  03:08        0.36
  WS02003067           JUNCTION     0.36     0.64     5.96     0  03:08        0.59
  WS02003071           JUNCTION     0.53     0.92     5.32     0  03:22        0.92
  WS02003072           JUNCTION     0.45     0.89     5.26     0  03:22        0.86
  WS02003073           JUNCTION     0.56     0.99     5.23     0  03:22        0.97
  WS02003076           JUNCTION     0.51     0.93     5.16     0  03:21        0.83
  WS02003077           JUNCTION     0.14     0.24     5.25     0  03:01        0.24
  WS02003078           JUNCTION     0.04     0.08     6.98     0  02:54        0.07
  WS02003079           JUNCTION     0.13     0.23     7.14     0  02:53        0.23
  WS02003080           JUNCTION     0.25     0.41     5.44     0  03:01        0.41
  WS02003081           JUNCTION     0.32     0.54     5.58     0  03:01        0.54
  WS02003082           JUNCTION     0.32     0.59     5.67     0  03:01        0.59
  WS02003083           JUNCTION     0.37     0.68     5.77     0  03:00        0.68
  WS02003084           JUNCTION     0.38     0.73     5.83     0  03:01        0.73
  WS02003085           JUNCTION     0.33     0.71     5.88     0  03:00        0.71
  WS02003086           JUNCTION     0.35     1.01     6.21     0  03:13        0.76
  WS02003087           JUNCTION     0.37     0.90     6.12     0  03:13        0.83
  WS02003088           JUNCTION     0.34     0.88     6.17     0  03:13        0.84
  WS02003089           JUNCTION     0.27     0.77     6.23     0  03:00        0.76
  WS02003090           JUNCTION     0.31     0.83     6.30     0  03:13        0.80
  WS02003091           JUNCTION     0.18     0.50     6.30     0  03:00        0.50
  WS02003092           JUNCTION     0.01     0.01     7.65     0  01:35        0.01
  WS02003093           JUNCTION     0.03     0.07     7.41     0  02:50        0.07
  WS02003094           JUNCTION     0.12     0.19     7.41     0  02:51        0.19
  WS02003098           JUNCTION     0.08     0.13     7.30     0  02:52        0.13
  WS02003099           JUNCTION     0.15     0.25     7.29     0  02:52        0.25
  WS02003102           JUNCTION     0.13     0.24     7.27     0  02:51        0.24
  WS02003103           JUNCTION     0.15     0.26     7.23     0  02:52        0.26
  WS02003104           JUNCTION     0.15     0.26     7.22     0  02:52        0.26
  WS02003106           JUNCTION     0.15     0.25     7.18     0  02:53        0.25
  WS02003110           JUNCTION     0.15     0.30     7.55     0  02:56        0.29
  WS02003111           JUNCTION     0.15     0.41     7.50     0  02:58        0.41
  WS02003115           JUNCTION     0.21     0.83     7.73     0  02:58        0.69
  WS02003116           JUNCTION     0.26     0.98     7.69     0  02:58        0.82
  WS02003118           JUNCTION     0.24     0.94     7.56     0  03:02        0.72
  WS02003122           JUNCTION     0.35     0.94     7.31     0  02:58        0.88
  WS02003123           JUNCTION     0.28     0.86     7.30     0  02:58        0.82
  WS02003126           JUNCTION     0.22     0.74     7.26     0  02:58        0.74
  WS02003187           JUNCTION     0.37     0.95     7.28     0  03:00        0.89
  WS02003188           JUNCTION     0.41     0.95     7.21     0  03:00        0.89
  WS02003190           JUNCTION     0.40     0.88     7.13     0  03:00        0.84
  WS02003193           JUNCTION     0.38     0.80     7.04     0  03:00        0.79
  WS02003195           JUNCTION     0.36     0.72     6.94     0  02:59        0.72
  WS02003196           JUNCTION     0.37     0.68     6.86     0  02:57        0.68
  WS02003198           JUNCTION     0.35     0.62     6.79     0  02:57        0.62
  WS02003200           JUNCTION     0.24     0.42     6.58     0  02:56        0.42
  WS02003201           JUNCTION     0.23     0.41     6.55     0  02:56        0.41
  WS02003202           JUNCTION     0.24     0.42     6.48     0  02:56        0.42
  WS02003203           JUNCTION     0.16     0.33     6.33     0  02:58        0.33
  WS02003215           JUNCTION     0.20     0.89     7.75     0  02:58        0.74
  WS02004050           JUNCTION     0.34     0.55     4.77     0  03:23        0.54
  WS02004053           JUNCTION     0.00     0.00     0.00     0  00:00        0.00
  WS02004136           JUNCTION     0.12     0.21     6.94     0  00:01        0.18
  WS02004139           JUNCTION     0.25     0.42     5.38     0  03:13        0.42
  WS02004401           JUNCTION     0.39     0.70     6.70     0  03:05        0.70
  WS02004402           JUNCTION     0.39     0.72     6.68     0  03:05        0.72
  WS02004403           JUNCTION     0.38     0.71     6.64     0  03:06        0.71
  WS02004404           JUNCTION     0.46     0.79     6.64     0  03:06        0.79
  WS02004405           JUNCTION     0.47     0.79     6.63     0  03:06        0.78
  WS02004406           JUNCTION     0.44     0.75     6.58     0  03:06        0.75
  WS02004407           JUNCTION     0.42     0.70     6.50     0  03:06        0.70
  WS02004409           JUNCTION     0.40     0.68     6.45     0  03:06        0.68
  WS02004410           JUNCTION     0.39     0.64     6.36     0  03:06        0.64
  WS02004411           JUNCTION     0.36     0.59     6.27     0  03:07        0.59
  WS02004412           JUNCTION     0.31     0.52     6.16     0  03:07        0.52
  WS02004413           JUNCTION     0.32     0.56     6.03     0  03:08        0.55
  WS02004997           JUNCTION     6.19     6.55     8.16     0  02:56        6.55
  WS02005122           JUNCTION     0.09     0.15     9.67     0  02:49        0.15
  WS02005123           JUNCTION     0.07     0.13     9.59     0  02:49        0.13
  WS02005124           JUNCTION     0.07     0.12     9.39     0  02:49        0.12
  WS02005126           JUNCTION     0.12     0.20     9.30     0  02:50        0.20
  WS02005127           JUNCTION     0.11     0.18     9.21     0  02:50        0.18
  WS02005129           JUNCTION     0.11     0.19     9.12     0  02:49        0.19
  WS02005131           JUNCTION     0.12     0.22     8.98     0  02:49        0.22
  WS02005132           JUNCTION     0.16     0.27     8.91     0  02:50        0.27
  WS02005133           JUNCTION     0.15     0.26     8.87     0  02:50        0.26
  WS02005135           JUNCTION     0.14     0.25     8.81     0  02:49        0.25
  WS02005137           JUNCTION     0.17     0.31     8.73     0  02:50        0.31
  WS02005138           JUNCTION     0.18     0.30     8.65     0  02:50        0.30
  WS02005140           JUNCTION     0.14     0.25     8.57     0  02:51        0.25
  WS02005142           JUNCTION     0.18     0.32     8.48     0  02:50        0.32
  WS02005144           JUNCTION     0.17     0.31     8.36     0  02:51        0.31
  WS02005145           JUNCTION     0.21     0.36     8.26     0  02:50        0.36
  WS02005147           JUNCTION     0.16     0.29     8.16     0  02:50        0.29
  WS02005152           JUNCTION     0.18     0.32     8.04     0  02:49        0.31
  WS02005154           JUNCTION     0.13     0.24     7.88     0  02:50        0.24
  WS02005155           JUNCTION     0.19     0.33     7.64     0  02:50        0.33
  WS02005162           JUNCTION     0.17     0.48     8.48     0  03:13        0.48
  WS02005163           JUNCTION     0.17     0.46     8.50     0  03:12        0.46
  WS02005164           JUNCTION     0.16     0.41     8.49     0  03:13        0.38
  WS02005165           JUNCTION     0.12     0.30     8.48     0  03:14        0.30
  WS02005166           JUNCTION     0.11     0.21     8.48     0  03:13        0.21
  WS02005167           JUNCTION     0.14     0.21     8.51     0  02:49        0.21
  WS02005170           JUNCTION     0.10     0.15     8.55     0  02:49        0.15
  WS02005171           JUNCTION     0.10     0.16     8.63     0  02:49        0.16
  WS02005175           JUNCTION     0.10     0.16     8.73     0  02:48        0.16
  WS02005176           JUNCTION     0.09     0.14     8.76     0  02:49        0.14
  WS02005180           JUNCTION     0.11     0.16     8.81     0  02:49        0.16
  WS02005181           JUNCTION     0.09     0.14     8.84     0  02:48        0.14
  WS02005183           JUNCTION     0.06     0.10     8.96     0  02:48        0.10
  WS02005184           JUNCTION     0.07     0.12     9.03     0  02:47        0.12
  WS02005185           JUNCTION     0.06     0.10     9.12     0  02:47        0.10
  WS02005186           JUNCTION     0.06     0.11     9.22     0  02:47        0.11
  WS02005188           JUNCTION     0.18     0.54     8.48     0  03:13        0.53
  WS02005191           JUNCTION     0.22     0.60     8.50     0  03:08        0.56
  WS02005192           JUNCTION     0.23     0.74     8.61     0  03:09        0.62
  WS02005193           JUNCTION     0.23     1.50     9.32     0  03:08        0.65
  WS02005196           JUNCTION     0.24     1.36     9.21     0  03:08        0.63
  WS02006109           JUNCTION     0.44     0.79     7.41     0  03:03        0.79
  WS02006110           JUNCTION     0.40     0.70     7.30     0  03:03        0.70
  WS02006111           JUNCTION     0.22     0.42     7.00     0  03:03        0.41
  WS02006112           JUNCTION     0.41     0.72     6.84     0  03:05        0.72
  WS02006113           JUNCTION     0.34     0.58     7.17     0  03:03        0.58
  WS02006115           JUNCTION     0.37     0.68     6.78     0  03:05        0.68
  WS02006116           JUNCTION     0.39     0.71     6.75     0  03:05        0.71
  WS02006183           JUNCTION     0.00     0.00     0.00     0  00:00        0.00
  WS02006228           JUNCTION     0.45     0.85     7.50     0  03:03        0.85
  WS02006229           JUNCTION     0.42     0.85     7.54     0  03:03        0.85
  WS02006230           JUNCTION     0.42     0.93     7.68     0  03:03        0.93
  WS02006231           JUNCTION     0.34     1.18     8.08     0  03:04        0.90
  WS02006232           JUNCTION     0.32     1.15     8.18     0  03:04        0.89
  WS02006234           JUNCTION     0.32     1.13     8.29     0  03:04        0.89
  WS02006235           JUNCTION     0.37     1.26     8.43     0  03:04        0.96
  WS02006238           JUNCTION     0.37     1.28     8.46     0  03:04        0.97
  WS02006239           JUNCTION     0.38     1.39     8.60     0  03:04        0.96
  WS02006242           JUNCTION     0.38     1.36     8.66     0  03:01        0.93
  WS02006240           JUNCTION     0.33     1.38     8.67     0  02:59        0.91
  WS02006243           JUNCTION     0.30     1.48     8.90     0  03:01        0.84
  WS02006245           JUNCTION     0.30     1.39     8.88     0  03:01        0.77
  WS02006247           JUNCTION     0.32     1.23     8.74     0  03:01        0.77
  WS02006248           JUNCTION     0.27     0.72     8.31     0  03:09        0.71
  WS02006249           JUNCTION     0.30     0.76     8.36     0  03:08        0.74
  WS02006251           JUNCTION     0.29     0.78     8.45     0  03:08        0.76
  WS02006253           JUNCTION     0.22     0.68     8.48     0  03:09        0.68
  WS02618401           JUNCTION     0.00     0.00     0.00     0  00:00        0.00
  WS8802               JUNCTION     0.00     0.00     4.38     0  00:00        0.00
  WSA1649              JUNCTION     0.00     0.00     0.00     0  00:00        0.00
  WSF200               JUNCTION     0.21     0.40     5.50     0  03:09        0.40
  XR-Inflow            JUNCTION     6.10     6.55     8.36     0  02:44        6.55
  WS02004114           JUNCTION     6.13     6.42     8.02     0  02:50        6.42
  outfall-24           OUTFALL      0.13     0.21     5.71     0  02:50        0.21
  outfall-2            OUTFALL      0.00     0.00     7.00     0  00:00        0.00
  outfall-5            OUTFALL      0.01     0.11     7.78     0  03:09        0.11
  outfall-8            OUTFALL      0.00     0.00     8.00     0  00:00        0.00
  outfall-14           OUTFALL      0.00     0.00     7.66     0  00:00        0.00
  outfall-16           OUTFALL      0.00     0.00     8.39     0  00:00        0.00
  outfall-17           OUTFALL      0.00     0.00     8.15     0  00:00        0.00
  outfall-27           OUTFALL      0.01     0.16     8.06     0  02:50        0.16
  outfall-28           OUTFALL      0.01     0.18     7.48     0  02:40        0.18
  67                   OUTFALL      0.00     0.00    10.20     0  00:00        0.00
  12                   OUTFALL      0.34     0.54     0.54     0  03:09        0.54
  XR-storage           STORAGE      7.17     7.44     7.94     0  02:50        7.44
  CC-storage           STORAGE      1.61     5.29     8.47     0  02:50        5.29
  JK-storage           STORAGE      1.19     4.58     7.58     0  02:40        4.58
  
  
  *******************
  Node Inflow Summary
  *******************
  
  -------------------------------------------------------------------------------------------------
                                  Maximum  Maximum                  Lateral       Total        Flow
                                  Lateral    Total  Time of Max      Inflow      Inflow     Balance
                                   Inflow   Inflow   Occurrence      Volume      Volume       Error
  Node                 Type           MLD      MLD  days hr:min    10^6 ltr    10^6 ltr     Percent
  -------------------------------------------------------------------------------------------------
  WS01000070           JUNCTION      0.00     0.00     0  00:00           0           0       0.000 ltr
  WS01000323           JUNCTION      0.00     0.00     0  00:00           0           0       0.000 ltr
  WS01000533           JUNCTION      0.00     0.00     0  00:00           0           0       0.000 ltr
  WS01005172           JUNCTION      0.00     0.00     0  00:00           0           0       0.000 ltr
  WS01005181           JUNCTION      0.00     0.00     0  00:00           0           0       0.000 ltr
  WS01009841           JUNCTION      0.00     0.00     0  00:00           0           0       0.000 ltr
  WS02000078           JUNCTION      0.00     0.00     0  00:00           0           0       0.000 ltr
  WS02000112           JUNCTION      0.00     0.00     0  00:00           0           0       0.000 ltr
  WS02000136           JUNCTION      0.00     0.00     0  00:00           0           0       0.000 ltr
  WS02001211           JUNCTION      0.25    35.75     0  00:02      0.0407        3.28       0.799
  WS02001212           JUNCTION      0.21    37.57     0  03:42      0.0346         3.3       0.452
  WS02001213           JUNCTION      0.30    42.93     0  03:43      0.0489        3.33       0.578
  WS02003059           JUNCTION      0.23    39.56     0  03:43      0.0378        3.35       0.733
  WS02003060           JUNCTION      0.16   130.35     0  03:09      0.0252        8.39       0.433
  WS02003066           JUNCTION      0.08   107.84     0  03:08      0.0122        5.03       0.143
  WS02003067           JUNCTION      0.26    86.27     0  03:07      0.0395        5.02       0.079
  WS02003071           JUNCTION      0.35   122.21     0  03:09      0.0538         8.4       0.469
  WS02003072           JUNCTION      0.24   122.61     0  03:10      0.0382         8.4       0.302
  WS02003073           JUNCTION      0.07   173.09     0  03:23     0.00978        10.6       0.271
  WS02003076           JUNCTION      0.72   178.45     0  03:20        0.12        10.7       0.198
  WS02003077           JUNCTION      0.04    40.96     0  03:01      0.0059        2.23       0.140
  WS02003078           JUNCTION      0.03    10.85     0  02:53     0.00419       0.493      -0.010
  WS02003079           JUNCTION      0.04     9.31     0  02:53     0.00561        0.49       0.240
  WS02003080           JUNCTION      0.08    31.66     0  03:01      0.0113        1.73       0.314
  WS02003081           JUNCTION      0.03    31.60     0  03:01     0.00406        1.73       0.410
  WS02003082           JUNCTION      0.05    31.58     0  03:01     0.00692        1.73       0.418
  WS02003083           JUNCTION      0.02    31.55     0  03:01      0.0027        1.73       0.421
  WS02003084           JUNCTION      0.06    31.53     0  03:01     0.00885        1.74       0.292
  WS02003085           JUNCTION      0.02    31.49     0  03:01     0.00307        1.73       0.263
  WS02003086           JUNCTION      0.04    31.47     0  03:01     0.00599        1.73       0.351
  WS02003087           JUNCTION      0.06    31.44     0  03:01     0.00824        1.73       0.370
  WS02003088           JUNCTION      0.07    31.40     0  03:01      0.0105        1.73       0.314
  WS02003089           JUNCTION      0.08    31.35     0  03:01      0.0113        1.72       0.186
  WS02003090           JUNCTION      0.04    31.29     0  03:01     0.00647        1.72       0.178
  WS02003091           JUNCTION      0.01    32.89     0  02:56     0.00171        1.71       0.075
  WS02003092           JUNCTION      0.07     0.07     0  01:00     0.00989     0.00989       0.383
  WS02003093           JUNCTION      0.02     0.10     0  02:38     0.00306       0.013       1.000
  WS02003094           JUNCTION      4.98     5.06     0  02:50       0.259       0.272       0.977
  WS02003098           JUNCTION      0.02     5.07     0  02:51     0.00293       0.272       0.588
  WS02003099           JUNCTION      0.07     5.13     0  02:52      0.0109       0.281       1.214
  WS02003102           JUNCTION      4.19     9.22     0  02:50       0.203       0.481       0.583
  WS02003103           JUNCTION      0.02     9.23     0  02:51     0.00239        0.48       0.427
  WS02003104           JUNCTION      0.02     9.24     0  02:52     0.00302       0.481       0.360
  WS02003106           JUNCTION      0.05     9.28     0  02:52     0.00727       0.487       0.436
  WS02003110           JUNCTION      0.06    22.66     0  02:50     0.00906        1.13       0.096
  WS02003111           JUNCTION      0.02    21.87     0  02:50      0.0029        1.14       0.097
  WS02003115           JUNCTION      0.95    24.76     0  03:02      0.0521        1.19       0.092
  WS02003116           JUNCTION      0.08    22.30     0  03:02      0.0118        1.21       0.204
  WS02003118           JUNCTION      2.41    24.28     0  03:00        0.12        1.32       0.245
  WS02003122           JUNCTION      0.07    24.43     0  02:58      0.0101        1.35       0.456
  WS02003123           JUNCTION      0.06     1.01     0  03:03      0.0093      0.0244       5.735
  WS02003126           JUNCTION      0.03     0.59     0  03:03     0.00529     0.00856       6.323
  WS02003187           JUNCTION      0.06    24.31     0  02:58     0.00906        1.35       0.421
  WS02003188           JUNCTION      1.76    26.01     0  02:58       0.109        1.45       0.547
  WS02003190           JUNCTION      0.06    26.07     0  02:58     0.00956        1.45       0.517
  WS02003193           JUNCTION      2.18    28.03     0  02:58       0.105        1.55       0.510
  WS02003195           JUNCTION      0.03    28.06     0  02:58      0.0053        1.55       0.516
  WS02003196           JUNCTION      0.02    28.00     0  02:57     0.00301        1.54       0.514
  WS02003198           JUNCTION      3.18    31.17     0  02:57       0.176        1.71       0.580
  WS02003200           JUNCTION      0.07    31.29     0  02:57      0.0107        1.71       0.275
  WS02003201           JUNCTION      0.01    31.96     0  02:56     0.00183        1.71       0.107
  WS02003202           JUNCTION      0.02    31.80     0  02:56      0.0031        1.71       0.225
  WS02003203           JUNCTION      0.05    32.76     0  02:55     0.00692        1.71       0.065
  WS02003215           JUNCTION      0.06    23.82     0  03:03     0.00945        1.19       0.075
  WS02004050           JUNCTION      0.72   186.27     0  03:17       0.119        10.8       0.545
  WS02004053           JUNCTION      0.00     0.00     0  00:00           0           0       0.000 ltr
  WS02004136           JUNCTION      0.44    32.92     0  01:10      0.0703         3.2       0.082
  WS02004139           JUNCTION      0.38    39.53     0  00:01      0.0619        3.26       0.522
  WS02004401           JUNCTION      0.05    72.11     0  03:04     0.00897        3.95       0.173
  WS02004402           JUNCTION      0.22    72.06     0  03:05      0.0335        3.97       0.158
  WS02004403           JUNCTION      0.23    72.05     0  03:05      0.0349           4       0.134
  WS02004404           JUNCTION      0.24    72.23     0  03:06      0.0365        4.03       0.132
  WS02004405           JUNCTION      2.85    74.10     0  03:05       0.143        4.17       0.193
  WS02004406           JUNCTION      5.62    78.97     0  03:05       0.322        4.48       0.274
  WS02004407           JUNCTION      0.11    79.01     0  03:06      0.0171        4.49       0.244
  WS02004409           JUNCTION      3.79    82.15     0  03:06       0.224         4.7       0.207
  WS02004410           JUNCTION      0.15    82.30     0  03:07      0.0226        4.71       0.210
  WS02004411           JUNCTION      0.25    82.59     0  03:07      0.0379        4.74       0.182
  WS02004412           JUNCTION      4.83    85.79     0  03:07       0.242        4.98       0.141
  WS02004413           JUNCTION      0.11    85.91     0  03:07      0.0172        4.99       0.133
  WS02004997           JUNCTION      0.42   114.42     0  03:01      0.0693         9.5       0.431
  WS02005122           JUNCTION      3.17     3.17     0  02:49       0.167       0.167       0.143
  WS02005123           JUNCTION      0.06     3.23     0  02:49     0.00977       0.177       0.201
  WS02005124           JUNCTION      0.04     3.27     0  02:49     0.00611       0.182       0.296
  WS02005126           JUNCTION      2.87     6.13     0  02:50       0.153       0.335       0.382
  WS02005127           JUNCTION      0.05     6.18     0  02:50     0.00848       0.342       0.330
  WS02005129           JUNCTION      3.06     9.21     0  02:48       0.149       0.491       0.241
  WS02005131           JUNCTION      0.04     9.25     0  02:49     0.00682       0.496       0.323
  WS02005132           JUNCTION      0.05     9.29     0  02:49     0.00808       0.503       0.436
  WS02005133           JUNCTION      0.06     9.35     0  02:50        0.01        0.51       0.365
  WS02005135           JUNCTION      4.44    13.74     0  02:49       0.219       0.728       0.217
  WS02005137           JUNCTION      0.04    13.78     0  02:49     0.00625       0.732       0.329
  WS02005138           JUNCTION      0.06    13.84     0  02:50      0.0101        0.74       0.364
  WS02005140           JUNCTION      0.06    13.90     0  02:50        0.01       0.747       0.232
  WS02005142           JUNCTION      4.94    18.78     0  02:50       0.242       0.988       0.244
  WS02005144           JUNCTION      0.06    18.83     0  02:50     0.00927       0.995       0.239
  WS02005145           JUNCTION      0.04    18.86     0  02:50     0.00618       0.998       0.309
  WS02005147           JUNCTION      0.05    18.97     0  02:51     0.00749           1       0.211
  WS02005152           JUNCTION      0.06    19.03     0  02:51     0.00981        1.01       0.248
  WS02005154           JUNCTION      2.19    22.33     0  02:50        0.11        1.12       0.122
  WS02005155           JUNCTION      0.06    21.59     0  02:50        0.01        1.13       0.182
  WS02005162           JUNCTION      0.08    11.47     0  03:15      0.0127       0.487       0.320
  WS02005163           JUNCTION      0.13    10.55     0  03:07        0.02       0.475       0.328
  WS02005164           JUNCTION      1.29     8.55     0  03:05      0.0654       0.456       0.331
  WS02005165           JUNCTION      0.11     6.15     0  02:50      0.0168       0.391       0.288
  WS02005166           JUNCTION      0.11     6.06     0  02:49      0.0167       0.376       0.308
  WS02005167           JUNCTION      1.23     5.96     0  02:48      0.0639        0.36       0.427
  WS02005170           JUNCTION      0.09     4.77     0  02:49       0.013       0.297       0.332
  WS02005171           JUNCTION      0.02     4.69     0  02:48     0.00326       0.285       0.348
  WS02005175           JUNCTION      1.94     4.67     0  02:48      0.0932       0.283       0.287
  WS02005176           JUNCTION      0.08     2.76     0  02:49      0.0123       0.191       0.422
  WS02005180           JUNCTION      0.11     2.69     0  02:48      0.0172       0.179       0.579
  WS02005181           JUNCTION      0.13     2.60     0  02:48      0.0203       0.163       0.449
  WS02005183           JUNCTION      0.03     2.48     0  02:47     0.00433       0.143       0.261
  WS02005184           JUNCTION      0.09     2.46     0  02:47       0.013       0.139       0.280
  WS02005185           JUNCTION      0.07     2.38     0  02:47      0.0111       0.126       0.210
  WS02005186           JUNCTION      2.32     2.32     0  02:47       0.115       0.115       0.134
  WS02005188           JUNCTION      0.03    11.44     0  03:15     0.00497       0.492       0.237
  WS02005191           JUNCTION      0.06    13.02     0  03:14     0.00844       0.501       0.316
  WS02005192           JUNCTION      4.90    15.01     0  03:15       0.247       0.743       0.250
  WS02005193           JUNCTION      0.09    16.00     0  03:14      0.0146       0.772       0.199
  WS02005196           JUNCTION      0.12    16.07     0  03:14       0.019       0.759       0.216
  WS02006109           JUNCTION      0.08    67.96     0  03:04      0.0135         3.6       0.243
  WS02006110           JUNCTION      0.08    68.07     0  03:04      0.0132         3.6       0.228
  WS02006111           JUNCTION      0.24    72.29     0  03:03      0.0366        3.88       0.060
  WS02006112           JUNCTION      0.18    72.55     0  03:03      0.0273        3.91       0.194
  WS02006113           JUNCTION      5.03    71.97     0  03:04        0.26        3.85       0.174
  WS02006115           JUNCTION      0.08    72.42     0  03:04      0.0134        3.92       0.187
  WS02006116           JUNCTION      0.24    72.30     0  03:04       0.036        3.94       0.182
  WS02006183           JUNCTION      0.00     0.00     0  00:00           0           0       0.000 ltr
  WS02006228           JUNCTION      8.14    67.88     0  03:03       0.442        3.59       0.176
  WS02006229           JUNCTION      0.13    59.84     0  03:04        0.02        3.15       0.158
  WS02006230           JUNCTION      0.07    59.80     0  03:03      0.0116        3.14       0.148
  WS02006231           JUNCTION      0.13    59.72     0  03:03      0.0205        3.13       0.081
  WS02006232           JUNCTION      3.50    59.60     0  03:03       0.176        3.11       0.085
  WS02006234           JUNCTION      0.14    56.95     0  03:03      0.0216        2.94       0.084
  WS02006235           JUNCTION      0.14    56.80     0  03:03      0.0223        2.92       0.058
  WS02006238           JUNCTION      0.15    56.66     0  03:03      0.0235         2.9       0.087
  WS02006239           JUNCTION      0.11    41.70     0  03:19      0.0174        2.01       0.191
  WS02006242           JUNCTION      0.08    40.22     0  03:18      0.0129        1.99       0.243
  WS02006240           JUNCTION      0.06    40.77     0  03:19     0.00992           2       0.163
  WS02006243           JUNCTION      0.17    39.21     0  03:18      0.0269        1.98       0.154
  WS02006245           JUNCTION      0.07    38.22     0  03:19      0.0113        1.96       0.135
  WS02006247           JUNCTION      3.16    37.58     0  03:19        0.19        1.95       0.134
  WS02006248           JUNCTION      0.12    42.56     0  03:13      0.0192        1.85       0.083
  WS02006249           JUNCTION      0.19    42.36     0  03:13      0.0286        1.83       0.153
  WS02006251           JUNCTION      1.52    42.30     0  03:13      0.0832         1.8       0.139
  WS02006253           JUNCTION      0.11    42.38     0  03:13      0.0173        1.72       0.058
  WS02618401           JUNCTION      0.00     0.00     0  00:00           0           0       0.000 ltr
  WS8802               JUNCTION      0.00     0.00     0  00:00           0           0       0.000 ltr
  WSA1649              JUNCTION      0.00     0.00     0  00:00           0           0       0.000 ltr
  WSF200               JUNCTION      0.14   100.54     0  03:08      0.0216        5.04       0.050
  XR-Inflow            JUNCTION    132.50   132.50     0  03:00        9.68        9.68       0.255
  WS02004114           JUNCTION      0.57   114.94     0  03:02      0.0916        9.56       0.268
  outfall-24           OUTFALL       0.00   111.37     0  02:50           0        6.36       0.000
  outfall-2            OUTFALL       0.00     0.00     0  00:00           0           0       0.000 ltr
  outfall-5            OUTFALL       0.00    13.44     0  03:09           0      0.0843       0.000
  outfall-8            OUTFALL       0.00     0.00     0  00:00           0           0       0.000 ltr
  outfall-14           OUTFALL       0.00     0.00     0  00:00           0           0       0.000 ltr
  outfall-16           OUTFALL       0.00     0.00     0  00:00           0           0       0.000 ltr
  outfall-17           OUTFALL       0.00     0.00     0  00:00           0           0       0.000 ltr
  outfall-27           OUTFALL       0.00    15.97     0  02:50           0       0.116       0.000
  outfall-28           OUTFALL       0.00    14.36     0  02:40           0      0.0796       0.000
  67                   OUTFALL       0.00     0.00     0  00:00           0           0       0.000 ltr
  12                   OUTFALL       0.00   159.32     0  03:09           0        10.7       0.000
  XR-storage           STORAGE       0.00   114.94     0  03:01           0        9.53      -0.294
  CC-storage           STORAGE      15.97    15.97     0  02:50       0.995       0.995     -11.150
  JK-storage           STORAGE      16.02    16.02     0  02:50       0.919       0.919      -9.189
  
  
  **********************
  Node Surcharge Summary
  **********************
  
  Surcharging occurs when water rises above the top of the highest conduit.
  ---------------------------------------------------------------------
                                               Max. Height   Min. Depth
                                   Hours       Above Crown    Below Rim
  Node                 Type      Surcharged         Meters       Meters
  ---------------------------------------------------------------------
  WS01000070           JUNCTION        4.00          0.000        0.000
  WS01000323           JUNCTION        4.00          0.000        0.000
  WS01000533           JUNCTION        4.00          0.000        2.147
  WS01005172           JUNCTION        4.00          0.000        0.000
  WS01005181           JUNCTION        4.00          0.000        0.000
  WS01009841           JUNCTION        4.00          0.000        0.000
  WS02000078           JUNCTION        4.00          0.000        0.000
  WS02000112           JUNCTION        4.00          0.000        0.000
  WS02000136           JUNCTION        4.00          0.000        0.000
  WS02003083           JUNCTION        0.33          0.078        3.395
  WS02003084           JUNCTION        0.46          0.132        4.447
  WS02003085           JUNCTION        0.34          0.110        3.632
  WS02003086           JUNCTION        0.39          0.413        3.360
  WS02003087           JUNCTION        0.47          0.296        3.409
  WS02003088           JUNCTION        0.44          0.278        3.262
  WS02003089           JUNCTION        0.31          0.168        3.575
  WS02003090           JUNCTION        0.33          0.229        3.604
  WS02003115           JUNCTION        0.02          0.235        1.889
  WS02003116           JUNCTION        0.29          0.381        2.050
  WS02003118           JUNCTION        0.28          0.342        2.222
  WS02003122           JUNCTION        0.49          0.342        2.339
  WS02003123           JUNCTION        0.53          0.361        2.024
  WS02003187           JUNCTION        0.52          0.349        2.161
  WS02003188           JUNCTION        0.58          0.351        2.017
  WS02003190           JUNCTION        0.53          0.285        1.931
  WS02003193           JUNCTION        0.47          0.205        2.044
  WS02003196           JUNCTION        0.37          0.079        2.631
  WS02003198           JUNCTION        0.19          0.019        3.265
  WS02003215           JUNCTION        0.09          0.287        1.915
  WS02004053           JUNCTION        4.00          0.000        0.000
  WS02004997           JUNCTION        3.62          5.647        0.353
  WS02005192           JUNCTION        0.01          0.141        2.678
  WS02005193           JUNCTION        0.08          0.901        1.716
  WS02005196           JUNCTION        0.04          0.758        1.948
  WS02006183           JUNCTION        4.00          0.000        0.000
  WS02006228           JUNCTION        0.15          0.046        2.185
  WS02006229           JUNCTION        0.11          0.046        2.408
  WS02006231           JUNCTION        0.35          0.475        1.068
  WS02006232           JUNCTION        0.29          0.446        1.043
  WS02006234           JUNCTION        0.26          0.430        0.827
  WS02006235           JUNCTION        0.29          0.562        0.732
  WS02006238           JUNCTION        0.30          0.583        0.851
  WS02006239           JUNCTION        0.31          0.691        0.638
  WS02006242           JUNCTION        0.32          0.660        0.189
  WS02006240           JUNCTION        0.29          0.680        0.723
  WS02006243           JUNCTION        0.26          0.780        0.000
  WS02006245           JUNCTION        0.23          0.690        0.165
  WS02006247           JUNCTION        0.25          0.531        0.229
  WS02006249           JUNCTION        0.13          0.063        0.325
  WS02006251           JUNCTION        0.11          0.079        1.431
  WS02618401           JUNCTION        4.00          0.000        0.000
  WS8802               JUNCTION        4.00          0.000        4.942
  WSA1649              JUNCTION        4.00          0.000        0.000
  XR-Inflow            JUNCTION        3.58          5.650        0.000
  WS02004114           JUNCTION        3.63          5.518        0.997
  
  
  *********************
  Node Flooding Summary
  *********************
  
  Flooding refers to all water that overflows a node, whether it ponds or not.
  --------------------------------------------------------------------------
                                                             Total   Maximum
                                 Maximum   Time of Max       Flood    Ponded
                        Hours       Rate    Occurrence      Volume     Depth
  Node                 Flooded       MLD   days hr:min    10^6 ltr    Meters
  --------------------------------------------------------------------------
  WS02006243              0.01      2.01      0  03:01       0.000     0.000
  XR-Inflow               0.52     18.75      0  03:00       0.227     0.000
  
  
  **********************
  Storage Volume Summary
  **********************
  
  --------------------------------------------------------------------------------------------------
                         Average     Avg  Evap Exfil       Maximum     Max    Time of Max    Maximum
                          Volume    Pcnt  Pcnt  Pcnt        Volume    Pcnt     Occurrence    Outflow
  Storage Unit           1000 m3    Full  Loss  Loss       1000 m3    Full    days hr:min        MLD
  --------------------------------------------------------------------------------------------------
  XR-storage               0.058      93     0     0         0.060      96       0  02:50     114.93
  CC-storage               0.045      29     0     0         0.149      94       0  02:50      34.56
  JK-storage               0.034      25     0     0         0.130      96       0  02:40      34.56
  
  
  ***********************
  Outfall Loading Summary
  ***********************
  
  ---------------------------------------------------------------------------------------------------------------------------------
                         Flow       Avg       Max       Total         Total         Total         Total         Total         Total
                         Freq      Flow      Flow      Volume           COD         NH3-N            TN            TP            SS
  Outfall Node           Pcnt       MLD       MLD    10^6 ltr            kg            kg            kg            kg            kg
  ---------------------------------------------------------------------------------------------------------------------------------
  outfall-24            95.44     55.46    111.37       6.364       905.494         0.000         0.000         0.000         0.000
  outfall-2              0.00      0.00      0.00       0.000         0.000         0.000         0.000         0.000         0.000
  outfall-5             10.16      7.01     13.44       0.084        14.829         0.000         0.000         0.000         0.000
  outfall-8              0.00      0.00      0.00       0.000         0.000         0.000         0.000         0.000         0.000
  outfall-14             0.00      0.00      0.00       0.000         0.000         0.000         0.000         0.000         0.000
  outfall-16             0.00      0.00      0.00       0.000         0.000         0.000         0.000         0.000         0.000
  outfall-17             0.00      0.00      0.00       0.000         0.000         0.000         0.000         0.000         0.000
  outfall-27             9.47     10.35     15.97       0.116        20.228         0.000         0.000         0.000         0.000
  outfall-28             8.19      8.21     14.36       0.080        11.522         0.000         0.000         0.000         0.000
  67                     0.00      0.00      0.00       0.000         0.000         0.000         0.000         0.000         0.000
  12                   100.00     76.08    159.32      10.743      1693.948         0.000         0.000         0.000         0.000
  ---------------------------------------------------------------------------------------------------------------------------------
  System                20.30    157.10    254.99      17.387      2646.022         0.000         0.000         0.000         0.000
  
  
  ********************
  Link Flow Summary
  ********************
  
  -----------------------------------------------------------------------------
                                 Maximum  Time of Max   Maximum    Max/    Max/
                                  |Flow|   Occurrence   |Veloc|    Full    Full
  Link                 Type          MLD  days hr:min     m/sec    Flow   Depth
  -----------------------------------------------------------------------------
  WSL49                CONDUIT    177.73     0  03:20      2.63    2.21    0.77
  WSL50                CONDUIT     31.66     0  03:02      2.33    2.19    0.54
  WSL51                CONDUIT     31.60     0  03:01      1.52    3.21    0.80
  WSL52                CONDUIT     31.57     0  03:01      1.32    1.47    0.94
  WSL53                CONDUIT     31.55     0  03:01      1.30    3.28    0.99
  WSL54                CONDUIT     31.53     0  03:01      1.29    2.53    1.00
  WSL55                CONDUIT     31.49     0  03:01      1.29    0.83    1.00
  WSL77                CONDUIT     31.47     0  03:01      1.29    1.65    1.00
  WSL78                CONDUIT     31.44     0  03:01      1.29    2.07    1.00
  WSL79                CONDUIT     31.40     0  03:01      1.29    1.07    1.00
  WSL80                CONDUIT     31.34     0  03:01      1.33    0.73    1.00
  WSL81                CONDUIT     31.29     0  03:01      1.53    2.31    1.00
  WSL82                CONDUIT     31.26     0  03:01      1.82    0.41    0.91
  WSL83                CONDUIT     32.88     0  02:56      2.96    0.41    0.69
  WSL84                CONDUIT     22.61     0  02:50      1.85    0.69    0.52
  WSL85                CONDUIT      1.00     0  03:03      0.40    0.03    1.00
  WSL86                CONDUIT      0.96     0  03:03      0.20    0.04    1.00
  WSL122               CONDUIT     26.07     0  02:58      1.07    2.61    1.00
  WSL123               CONDUIT     32.72     0  02:55      2.31    1.21    0.62
  WSL144               CONDUIT     24.30     0  02:58      0.99    0.95    1.00
  WSL145               CONDUIT     26.01     0  02:58      1.06    2.46    1.00
  WSL146               CONDUIT     28.03     0  02:58      1.15    2.05    1.00
  WSL147               CONDUIT     27.98     0  02:57      1.15    1.45    1.00
  WSL148               CONDUIT     28.00     0  02:57      1.15    2.66    1.00
  WSL149               CONDUIT     31.23     0  02:57      1.41    4.09    0.85
  WSL150               CONDUIT     31.95     0  02:56      1.78    1.06    0.70
  WSL151               CONDUIT     31.78     0  02:56      1.81    0.81    0.69
  WSL500               CONDUIT     20.18     0  02:50      1.83    0.67    0.46
  WSL502               CONDUIT     21.53     0  02:50      1.89    0.32    0.48
  WSL508               CONDUIT     11.41     0  03:15      0.82    0.43    0.85
  WSL509               CONDUIT     11.40     0  03:15      0.86    0.51    0.77
  WSL551               CONDUIT      9.21     0  02:49      1.26    0.21    0.34
  WSL553               CONDUIT      9.25     0  02:49      0.99    0.27    0.41
  WSL554               CONDUIT      9.29     0  02:50      0.89    0.48    0.44
  WSL555               CONDUIT      9.35     0  02:50      0.97    0.39    0.42
  WSL1465              CONDUIT     38.38     0  03:10      1.99    0.35    0.73
  WSL1472              CONDUIT    122.40     0  03:10      1.95    1.40    0.75
  WSL1475              CONDUIT    185.56     0  03:17      3.17    1.98    0.50
  WSL1476              CONDUIT     40.73     0  03:01      1.55    0.20    0.65
  WSL1477              CONDUIT     10.82     0  02:53      2.24    0.43    0.25
  WSL1490              CONDUIT     37.36     0  03:42      1.60    0.60    0.54
  WSL1491              CONDUIT     42.65     0  03:43      1.86    0.25    0.58
  WSL1492              CONDUIT     39.34     0  03:43      1.71    0.61    0.66
  WSL1506              CONDUIT      0.07     0  01:24      0.40    0.00    0.05
  WSL1507              CONDUIT      0.19     0  03:03      0.21    0.00    0.17
  WSL1508              CONDUIT      5.05     0  02:51      0.82    0.14    0.20
  WSL1512              CONDUIT      5.07     0  02:52      0.56    0.03    0.19
  WSL1513              CONDUIT      5.14     0  02:53      0.46    0.30    0.31
  WSL1515              CONDUIT    107.77     0  03:08      2.79    1.05    0.42
  WSL1516              CONDUIT      9.57     0  02:54      2.06    0.03    0.26
  WSL1518              CONDUIT      9.21     0  02:51      0.79    0.18    0.31
  WSL1519              CONDUIT      9.23     0  02:52      0.78    0.23    0.32
  WSL1521              CONDUIT      9.28     0  02:53      0.85    0.27    0.30
  WSL1525              CONDUIT     21.85     0  02:50      2.06    0.41    0.58
  WSL1526              CONDUIT     24.01     0  03:02      1.78    0.40    0.83
  WSL1529              CONDUIT     23.77     0  03:03      1.67    0.61    1.00
  WSL1530              CONDUIT     22.29     0  03:02      1.54    1.19    1.00
  WSL1532              CONDUIT     24.37     0  02:58      1.12    0.59    1.00
  WSL1543              CONDUIT      9.22     0  02:52      0.76    0.29    0.32
  WSL1545              CONDUIT     24.26     0  02:58      0.99    1.00    1.00
  WSL1641              CONDUIT     10.45     0  03:07      0.84    0.44    0.70
  WSL1642              CONDUIT      7.33     0  03:16      0.85    0.21    0.59
  WSL1643              CONDUIT      6.06     0  02:50      1.03    0.18    0.43
  WSL1644              CONDUIT      5.96     0  02:49      0.89    0.31    0.34
  WSL1646              CONDUIT      4.76     0  02:49      0.78    0.14    0.30
  WSL1647              CONDUIT      4.69     0  02:49      0.93    0.16    0.26
  WSL1652              CONDUIT      2.76     0  02:50      0.65    0.17    0.30
  WSL1764              CONDUIT     22.24     0  03:02      1.43    0.41    1.00
  WSL1931              CONDUIT      2.69     0  02:49      0.63    0.23    0.30
  WSL1932              CONDUIT      2.60     0  02:48      0.61    0.17    0.30
  WSL1934              CONDUIT      2.48     0  02:48      0.79    0.09    0.24
  WSL1935              CONDUIT      2.46     0  02:47      0.92    0.13    0.21
  WSL1961              CONDUIT     39.15     0  00:01      3.75    0.08    0.30
  WSL1964              CONDUIT     35.50     0  00:02      1.79    0.19    0.40
  WSL2010              CONDUIT     71.87     0  03:05      1.39    0.92    0.71
  WSL2011              CONDUIT     72.03     0  03:06      1.32    0.46    0.75
  WSL2012              CONDUIT     72.20     0  03:06      1.26    1.10    0.79
  WSL2013              CONDUIT     74.03     0  03:05      1.33    1.84    0.77
  WSL2014              CONDUIT     78.91     0  03:06      1.50    1.26    0.73
  WSL2015              CONDUIT     79.01     0  03:06      1.58    1.06    0.69
  WSL2016              CONDUIT     82.18     0  03:07      1.73    0.95    0.66
  WSL2017              CONDUIT     82.39     0  03:07      1.87    1.00    0.62
  WSL2018              CONDUIT     85.81     0  03:07      2.32    0.51    0.54
  WSL2019              CONDUIT     86.06     0  03:07      2.18    0.51    0.59
  WSL2028              CONDUIT     71.88     0  03:05      1.40    0.77    0.71
  WSL2029              CONDUIT     82.66     0  03:07      2.12    1.05    0.56
  WSL2031              CONDUIT      2.38     0  02:47      0.88    0.09    0.22
  WSL2032              CONDUIT      2.32     0  02:47      1.04    0.16    0.26
  WSL2034              CONDUIT     12.98     0  03:14      0.70    0.39    0.92
  WSL2037              CONDUIT     12.71     0  03:15      0.62    0.65    0.98
  WSL2038              CONDUIT     15.97     0  03:14      1.02    0.80    1.00
  WSL2039              CONDUIT     17.50     0  03:14      1.41    0.90    1.00
  WSL2041              CONDUIT     15.92     0  03:14      1.14    0.78    1.00
  WSL2124              CONDUIT     13.74     0  02:49      1.24    0.33    0.46
  WSL2126              CONDUIT     13.78     0  02:50      1.10    0.53    0.51
  WSL2127              CONDUIT     13.84     0  02:50      1.28    0.75    0.46
  WSL2128              CONDUIT     13.90     0  02:51      1.24    0.33    0.47
  WSL2130              CONDUIT     18.78     0  02:50      1.46    0.57    0.52
  WSL2146              CONDUIT     18.83     0  02:50      1.36    0.48    0.55
  WSL2147              CONDUIT     18.92     0  02:51      1.40    1.02    0.54
  WSL2148              CONDUIT     18.97     0  02:51      1.54    0.46    0.51
  WSL2294              CONDUIT     67.99     0  03:04      1.62    2.28    0.93
  WSL2295              CONDUIT     68.15     0  03:04      1.84    3.06    0.80
  WSL2296              CONDUIT     72.41     0  03:03      2.20    0.41    0.71
  WSL2297              CONDUIT     72.35     0  03:04      1.44    1.39    0.70
  WSL2298              CONDUIT     72.10     0  03:03      2.56    3.32    0.62
  WSL2301              CONDUIT     72.11     0  03:04      1.45    0.66    0.69
  WSL2302              CONDUIT     72.06     0  03:04      1.42    0.88    0.71
  WSL2357              CONDUIT      3.17     0  02:49      1.15    0.57    0.46
  WSL2358              CONDUIT      3.23     0  02:49      1.38    0.37    0.41
  WSL2359              CONDUIT      3.27     0  02:49      0.71    0.12    0.32
  WSL2361              CONDUIT      6.13     0  02:50      1.03    0.34    0.38
  WSL2362              CONDUIT      6.18     0  02:50      1.06    0.29    0.38
  WSL2441              CONDUIT     67.89     0  03:04      1.57    1.74    0.99
  WSL2442              CONDUIT     59.73     0  03:04      1.80    1.53    1.00
  WSL2443              CONDUIT     59.73     0  03:03      1.80    0.93    1.00
  WSL2444              CONDUIT     59.61     0  03:03      1.79    0.95    1.00
  WSL2446              CONDUIT     56.96     0  03:03      1.82    0.98    1.00
  WSL2447              CONDUIT     56.83     0  03:03      1.72    2.92    1.00
  WSL2448              CONDUIT     56.68     0  03:03      1.70    1.59    1.00
  WSL2449              CONDUIT     42.54     0  03:19      1.39    1.48    1.00
  WSL2450              CONDUIT     41.61     0  03:19      1.36    0.86    1.00
  WSL2451              CONDUIT     40.71     0  03:19      1.29    2.65    1.00
  WSL2452              CONDUIT     40.15     0  03:18      1.27    0.77    1.00
  WSL2454              CONDUIT     39.06     0  03:18      1.33    0.91    1.00
  WSL2478              CONDUIT     38.16     0  03:19      1.28    1.35    1.00
  WSL2479              CONDUIT     35.36     0  03:19      1.25    0.67    1.00
  WSL2480              CONDUIT     42.45     0  03:13      1.28    1.96    1.00
  WSL2482              CONDUIT     42.21     0  03:13      1.27    1.10    1.00
  WSL2484              CONDUIT     41.39     0  03:13      1.39    0.58    0.98
  WSL2493              CONDUIT     59.84     0  03:03      1.38    1.01    1.00
  WSL2867              CONDUIT    100.42     0  03:08      3.86    0.21    0.32
  WSL2868              CONDUIT     93.55     0  03:09      2.26    0.18    0.47
  5                    CONDUIT      4.67     0  02:48      1.00    0.22    0.32
  WSL348               CONDUIT    114.01     0  03:01      2.07    1.04    1.00
  WSL175               CONDUIT    114.42     0  03:02      2.17    3.85    1.00
  WSL1467              CONDUIT    121.92     0  03:09      1.79    0.65    0.69
  WSL1473              CONDUIT    144.35     0  03:23      2.12    0.59    0.76
  XRpipe               CONDUIT    114.94     0  03:01      8.80    0.28    1.00
  8                    CONDUIT     13.44     0  03:09      5.27    0.18    0.29
  19                   CONDUIT      0.00     0  00:00      0.00    0.00    0.00
  17                   CONDUIT      0.00     0  00:00      0.00    0.00    0.00
  4                    CONDUIT      0.00     0  00:00      0.00    0.00    0.00
  outletpipe           CONDUIT    111.37     0  02:50     16.12    0.37    0.43
  11                   CONDUIT      0.00     0  00:00      0.00    0.00    0.00
  20                   CONDUIT      0.00     0  00:00      0.00    0.00    0.00
  1                    CONDUIT     15.97     0  02:50      3.94    0.34    0.40
  28                   CONDUIT     14.36     0  02:40      2.94    0.43    0.46
  30                   CONDUIT      0.00     0  00:00      0.00    0.00    0.00
  2                    CONDUIT    159.32     0  03:09      4.22    0.58    0.55
  XR-Pump-1            PUMP         8.12     0  00:01              1.00
  XR-Pump-3            PUMP         8.12     0  00:01              1.00
  XR-Pump-2            PUMP         8.12     0  00:01              1.00
  XR-Pump-4            PUMP         8.12     0  00:01              1.00
  CC-Pump-1            PUMP        17.28     0  03:10              1.00
  CC-Pump-2            PUMP        17.28     0  01:00              1.00
  JK-Pump-1            PUMP        17.28     0  03:00              1.00
  JK-Pump-2            PUMP        17.28     0  01:50              1.00
  
  
  ***************************
  Flow Classification Summary
  ***************************
  
  -------------------------------------------------------------------------------------
                      Adjusted    ---------- Fraction of Time in Flow Class ---------- 
                       /Actual         Up    Down  Sub   Sup   Up    Down  Norm  Inlet 
  Conduit               Length    Dry  Dry   Dry   Crit  Crit  Crit  Crit  Ltd   Ctrl  
  -------------------------------------------------------------------------------------
  WSL49                   1.00   0.00  0.00  0.00  1.00  0.00  0.00  0.00  0.00  0.00
  WSL50                   1.00   0.00  0.00  0.00  0.08  0.92  0.00  0.00  0.00  0.00
  WSL51                   1.00   0.00  0.00  0.00  1.00  0.00  0.00  0.00  0.01  0.00
  WSL52                   1.00   0.00  0.00  0.00  1.00  0.00  0.00  0.00  0.10  0.00
  WSL53                   1.00   0.00  0.00  0.00  1.00  0.00  0.00  0.00  0.01  0.00
  WSL54                   1.00   0.00  0.00  0.00  1.00  0.00  0.00  0.00  0.00  0.00
  WSL55                   1.00   0.00  0.00  0.00  1.00  0.00  0.00  0.00  0.21  0.00
  WSL77                   1.00   0.00  0.00  0.00  1.00  0.00  0.00  0.00  0.00  0.00
  WSL78                   1.00   0.00  0.00  0.00  1.00  0.00  0.00  0.00  0.00  0.00
  WSL79                   1.00   0.00  0.00  0.00  1.00  0.00  0.00  0.00  0.35  0.00
  WSL80                   1.00   0.00  0.00  0.00  1.00  0.00  0.00  0.00  0.37  0.00
  WSL81                   1.00   0.00  0.00  0.00  1.00  0.00  0.00  0.00  0.00  0.00
  WSL82                   1.00   0.00  0.00  0.00  0.44  0.56  0.00  0.00  0.64  0.00
  WSL83                   1.00   0.00  0.00  0.00  0.04  0.96  0.00  0.00  0.36  0.00
  WSL84                   1.00   0.00  0.00  0.00  0.02  0.98  0.00  0.00  0.04  0.00
  WSL85                   1.00   0.00  0.00  0.00  1.00  0.00  0.00  0.00  0.11  0.00
  WSL86                   1.00   0.00  0.00  0.00  1.00  0.00  0.00  0.00  0.39  0.00
  WSL122                  1.00   0.00  0.00  0.00  1.00  0.00  0.00  0.00  0.00  0.00
  WSL123                  1.00   0.00  0.00  0.00  0.02  0.98  0.00  0.00  0.02  0.00
  WSL144                  1.00   0.00  0.00  0.00  1.00  0.00  0.00  0.00  0.26  0.00
  WSL145                  1.00   0.00  0.00  0.00  1.00  0.00  0.00  0.00  0.01  0.00
  WSL146                  1.00   0.00  0.00  0.00  1.00  0.00  0.00  0.00  0.03  0.00
  WSL147                  1.00   0.00  0.00  0.00  1.00  0.00  0.00  0.00  0.04  0.00
  WSL148                  1.00   0.00  0.00  0.00  1.00  0.00  0.00  0.00  0.00  0.00
  WSL149                  1.00   0.00  0.00  0.00  1.00  0.00  0.00  0.00  0.01  0.00
  WSL150                  1.00   0.00  0.00  0.00  0.84  0.16  0.00  0.00  0.00  0.00
  WSL151                  1.00   0.00  0.00  0.00  0.90  0.10  0.00  0.00  0.13  0.00
  WSL500                  1.00   0.00  0.00  0.00  0.01  0.99  0.00  0.00  0.00  0.00
  WSL502                  1.00   0.00  0.00  0.00  0.01  0.99  0.00  0.00  0.81  0.00
  WSL508                  1.00   0.00  0.00  0.00  1.00  0.00  0.00  0.00  0.04  0.00
  WSL509                  1.00   0.00  0.00  0.00  1.00  0.00  0.00  0.00  0.01  0.00
  WSL551                  1.00   0.00  0.00  0.00  0.24  0.76  0.00  0.00  0.62  0.00
  WSL553                  1.00   0.00  0.00  0.00  1.00  0.00  0.00  0.00  0.86  0.00
  WSL554                  1.00   0.00  0.00  0.00  1.00  0.00  0.00  0.00  0.23  0.00
  WSL555                  1.00   0.00  0.00  0.00  1.00  0.00  0.00  0.00  0.00  0.00
  WSL1465                 1.00   0.00  0.00  0.00  1.00  0.00  0.00  0.00  0.17  0.00
  WSL1472                 1.00   0.00  0.00  0.00  1.00  0.00  0.00  0.00  0.00  0.00
  WSL1475                 1.00   0.00  0.00  0.00  0.19  0.81  0.00  0.00  0.01  0.00
  WSL1476                 1.00   0.00  0.00  0.00  1.00  0.00  0.00  0.00  1.00  0.00
  WSL1477                 1.00   0.00  0.00  0.00  0.00  1.00  0.00  0.00  0.16  0.00
  WSL1490                 1.00   0.00  0.00  0.00  1.00  0.00  0.00  0.00  0.02  0.00
  WSL1491                 1.00   0.00  0.00  0.00  1.00  0.00  0.00  0.00  0.20  0.00
  WSL1492                 1.00   0.00  0.00  0.00  1.00  0.00  0.00  0.00  0.02  0.00
  WSL1506                 1.00   0.00  0.00  0.00  1.00  0.00  0.00  0.00  0.99  0.00
  WSL1507                 1.00   0.00  0.00  0.00  1.00  0.00  0.00  0.00  0.73  0.00
  WSL1508                 1.00   0.00  0.00  0.00  1.00  0.00  0.00  0.00  0.00  0.00
  WSL1512                 1.00   0.00  0.00  0.00  1.00  0.00  0.00  0.00  1.00  0.00
  WSL1513                 1.00   0.00  0.00  0.00  1.00  0.00  0.00  0.00  0.00  0.00
  WSL1515                 1.00   0.00  0.00  0.00  0.04  0.96  0.00  0.00  0.01  0.00
  WSL1516                 1.00   0.00  0.00  0.00  0.00  1.00  0.00  0.00  1.00  0.00
  WSL1518                 1.00   0.00  0.00  0.00  1.00  0.00  0.00  0.00  0.59  0.00
  WSL1519                 1.00   0.00  0.00  0.00  1.00  0.00  0.00  0.00  0.36  0.00
  WSL1521                 1.00   0.00  0.00  0.00  1.00  0.00  0.00  0.00  0.02  0.00
  WSL1525                 1.00   0.00  0.00  0.00  0.05  0.95  0.00  0.00  0.16  0.00
  WSL1526                 1.00   0.00  0.00  0.00  0.13  0.87  0.00  0.00  0.44  0.00
  WSL1529                 1.00   0.00  0.00  0.00  0.15  0.85  0.00  0.00  0.83  0.00
  WSL1530                 1.00   0.00  0.00  0.00  0.56  0.44  0.00  0.00  0.00  0.00
  WSL1532                 1.00   0.00  0.00  0.00  1.00  0.00  0.00  0.00  0.84  0.00
  WSL1543                 1.00   0.00  0.00  0.00  1.00  0.00  0.00  0.00  0.02  0.00
  WSL1545                 1.00   0.00  0.00  0.00  1.00  0.00  0.00  0.00  0.04  0.00
  WSL1641                 1.00   0.00  0.00  0.00  1.00  0.00  0.00  0.00  0.31  0.00
  WSL1642                 1.00   0.00  0.00  0.00  1.00  0.00  0.00  0.00  0.81  0.00
  WSL1643                 1.00   0.00  0.00  0.00  1.00  0.00  0.00  0.00  0.32  0.00
  WSL1644                 1.00   0.00  0.00  0.00  1.00  0.00  0.00  0.00  0.02  0.00
[...]
  WSL1529                     0.02      0.02      0.09      0.01         0.01
  WSL1530                     0.38      0.38      0.38      0.46         0.37
  WSL1532                     0.28      0.28      0.49      0.01         0.01
  WSL1545                     0.49      0.49      0.52      0.01         0.05
  WSL1764                     0.09      0.09      0.29      0.01         0.01
  WSL2012                     0.01      0.01      0.01      0.27         0.01
  WSL2013                     0.01      0.01      0.01      0.82         0.01
  WSL2014                     0.01      0.01      0.01      0.45         0.01
  WSL2015                     0.01      0.01      0.01      0.17         0.01
  WSL2017                     0.01      0.01      0.01      0.02         0.01
  WSL2029                     0.01      0.01      0.01      0.12         0.01
  WSL2037                     0.01      0.01      0.01      0.01         0.01
  WSL2038                     0.01      0.01      0.04      0.01         0.01
  WSL2039                     0.08      0.08      0.10      0.01         0.01
  WSL2041                     0.04      0.04      0.08      0.01         0.01
  WSL2147                     0.01      0.01      0.01      0.15         0.01
  WSL2294                     0.01      0.01      0.01      1.05         0.01
  WSL2295                     0.01      0.01      0.01      1.55         0.01
  WSL2297                     0.01      0.01      0.01      0.54         0.01
  WSL2298                     0.01      0.01      0.01      1.81         0.01
  WSL2441                     0.01      0.15      0.01      0.73         0.01
  WSL2442                     0.39      0.43      0.39      0.63         0.39
  WSL2443                     0.35      0.35      0.43      0.01         0.01
  WSL2444                     0.29      0.29      0.35      0.01         0.01
  WSL2446                     0.26      0.26      0.29      0.01         0.01
  WSL2447                     0.26      0.29      0.26      1.33         0.26
  WSL2448                     0.29      0.30      0.29      0.64         0.29
  WSL2449                     0.30      0.31      0.30      0.35         0.21
  WSL2450                     0.29      0.29      0.31      0.01         0.01
  WSL2451                     0.29      0.32      0.29      1.42         0.27
  WSL2452                     0.26      0.26      0.32      0.01         0.01
  WSL2454                     0.22      0.23      0.26      0.01         0.01
  WSL2478                     0.22      0.25      0.23      0.34         0.17
  WSL2479                     0.09      0.09      0.25      0.01         0.01
  WSL2480                     0.09      0.13      0.09      0.61         0.09
  WSL2482                     0.10      0.11      0.13      0.08         0.09
  WSL2484                     0.01      0.01      0.11      0.01         0.01
  WSL2493                     0.11      0.11      0.15      0.03         0.04
  WSL348                      3.58      3.58      3.62      0.61         0.61
  WSL175                      3.62      3.62      3.63      2.38         2.59
  XRpipe                      3.63      3.63      3.72      0.01         0.01
  
  
  ***************
  Pumping Summary
  ***************
  
  ---------------------------------------------------------------------------------------------------------
                                                  Min       Avg       Max     Total     Power    % Time Off
                        Percent   Number of      Flow      Flow      Flow    Volume     Usage    Pump Curve
  Pump                 Utilized   Start-Ups       MLD       MLD       MLD  10^6 ltr     Kw-hr    Low   High
  ---------------------------------------------------------------------------------------------------------
  XR-Pump-1               83.32           7      0.00      5.30      8.12     0.783      3.52    0.0    0.0
  XR-Pump-3               83.32           7      0.00      5.30      8.12     0.783      3.52    0.0    0.0
  XR-Pump-2               83.32           7      0.00      5.30      8.12     0.783      3.52    0.0    0.0
  XR-Pump-4               83.32           7      0.00      5.30      8.12     0.783      3.52    0.0    0.0
  CC-Pump-1               16.66           1      0.00      8.21     17.28     0.228      2.48    0.0    0.0
  CC-Pump-2               50.00           3      0.00      9.30     17.28     0.708      6.48    0.0    0.0
  JK-Pump-1               12.50           1      0.00     10.00     17.28     0.208      2.18    0.0    0.0
  JK-Pump-2               49.98           4      0.00      7.90     17.28     0.658      6.00    0.0    0.0
  
  
  ***************************
  Link Pollutant Load Summary
  ***************************
  
  ------------------------------------------------------------------------------------------
                                 COD         NH3-N            TN            TP            SS
  Link                            kg            kg            kg            kg            kg
  ------------------------------------------------------------------------------------------
  WSL49                     1664.403         0.000         0.000         0.000         0.000
  WSL50                      356.669         0.000         0.000         0.000         0.000
  WSL51                      355.621         0.000         0.000         0.000         0.000
  WSL52                      356.107         0.000         0.000         0.000         0.000
  WSL53                      356.083         0.000         0.000         0.000         0.000
  WSL54                      356.924         0.000         0.000         0.000         0.000
  WSL55                      356.304         0.000         0.000         0.000         0.000
  WSL77                      356.447         0.000         0.000         0.000         0.000
  WSL78                      356.441         0.000         0.000         0.000         0.000
  WSL79                      356.116         0.000         0.000         0.000         0.000
  WSL80                      355.234         0.000         0.000         0.000         0.000
  WSL81                      353.961         0.000         0.000         0.000         0.000
  WSL82                      353.360         0.000         0.000         0.000         0.000
  WSL83                      353.320         0.000         0.000         0.000         0.000
  WSL84                      200.126         0.000         0.000         0.000         0.000
  WSL85                        4.425         0.000         0.000         0.000         0.000
  WSL86                        1.872         0.000         0.000         0.000         0.000
  WSL122                     280.908         0.000         0.000         0.000         0.000
  WSL123                     352.267         0.000         0.000         0.000         0.000
  WSL144                     236.921         0.000         0.000         0.000         0.000
  WSL145                     280.414         0.000         0.000         0.000         0.000
  WSL146                     296.367         0.000         0.000         0.000         0.000
  WSL147                     296.149         0.000         0.000         0.000         0.000
  WSL148                     295.547         0.000         0.000         0.000         0.000
  WSL149                     351.143         0.000         0.000         0.000         0.000
  WSL150                     352.419         0.000         0.000         0.000         0.000
  WSL151                     352.393         0.000         0.000         0.000         0.000
  WSL500                     181.323         0.000         0.000         0.000         0.000
  WSL502                     198.666         0.000         0.000         0.000         0.000
  WSL508                      85.864         0.000         0.000         0.000         0.000
  WSL509                      83.844         0.000         0.000         0.000         0.000
  WSL551                     102.581         0.000         0.000         0.000         0.000
  WSL553                     103.537         0.000         0.000         0.000         0.000
  WSL554                     104.629         0.000         0.000         0.000         0.000
  WSL555                     106.057         0.000         0.000         0.000         0.000
  WSL1465                    433.768         0.000         0.000         0.000         0.000
  WSL1472                   1214.103         0.000         0.000         0.000         0.000
  WSL1475                   1681.561         0.000         0.000         0.000         0.000
  WSL1476                    449.244         0.000         0.000         0.000         0.000
  WSL1477                     91.267         0.000         0.000         0.000         0.000
  WSL1490                    420.759         0.000         0.000         0.000         0.000
  WSL1491                    426.059         0.000         0.000         0.000         0.000
  WSL1492                    430.349         0.000         0.000         0.000         0.000
  WSL1506                      1.646         0.000         0.000         0.000         0.000
  WSL1507                      2.205         0.000         0.000         0.000         0.000
  WSL1508                     57.561         0.000         0.000         0.000         0.000
  WSL1512                     57.873         0.000         0.000         0.000         0.000
  WSL1513                     59.228         0.000         0.000         0.000         0.000
  WSL1515                    772.579         0.000         0.000         0.000         0.000
  WSL1516                     91.992         0.000         0.000         0.000         0.000
  WSL1518                     88.912         0.000         0.000         0.000         0.000
  WSL1519                     89.440         0.000         0.000         0.000         0.000
  WSL1521                     90.433         0.000         0.000         0.000         0.000
  WSL1525                    201.558         0.000         0.000         0.000         0.000
  WSL1526                    201.956         0.000         0.000         0.000         0.000
  WSL1529                    210.887         0.000         0.000         0.000         0.000
  WSL1530                    214.134         0.000         0.000         0.000         0.000
  WSL1532                    232.869         0.000         0.000         0.000         0.000
  WSL1543                     89.113         0.000         0.000         0.000         0.000
  WSL1545                    235.952         0.000         0.000         0.000         0.000
  WSL1641                     80.853         0.000         0.000         0.000         0.000
  WSL1642                     69.910         0.000         0.000         0.000         0.000
  WSL1643                     67.169         0.000         0.000         0.000         0.000
  WSL1644                     64.448         0.000         0.000         0.000         0.000
  WSL1646                     53.779         0.000         0.000         0.000         0.000
  WSL1647                     51.702         0.000         0.000         0.000         0.000
  WSL1652                     36.379         0.000         0.000         0.000         0.000
  WSL1764                    212.414         0.000         0.000         0.000         0.000
  WSL1931                     34.443         0.000         0.000         0.000         0.000
  WSL1932                     31.701         0.000         0.000         0.000         0.000
  WSL1934                     28.393         0.000         0.000         0.000         0.000
  WSL1935                     27.704         0.000         0.000         0.000         0.000
  WSL1961                    409.105         0.000         0.000         0.000         0.000
  WSL1964                    416.902         0.000         0.000         0.000         0.000
  WSL2010                    518.968         0.000         0.000         0.000         0.000
  WSL2011                    523.922         0.000         0.000         0.000         0.000
  WSL2012                    529.184         0.000         0.000         0.000         0.000
  WSL2013                    550.377         0.000         0.000         0.000         0.000
  WSL2014                    661.143         0.000         0.000         0.000         0.000
  WSL2015                    662.181         0.000         0.000         0.000         0.000
  WSL2016                    723.026         0.000         0.000         0.000         0.000
  WSL2017                    725.239         0.000         0.000         0.000         0.000
  WSL2018                    764.673         0.000         0.000         0.000         0.000
  WSL2019                    766.581         0.000         0.000         0.000         0.000
  WSL2028                    514.331         0.000         0.000         0.000         0.000
  WSL2029                    730.259         0.000         0.000         0.000         0.000
  WSL2031                     25.571         0.000         0.000         0.000         0.000
  WSL2032                     23.747         0.000         0.000         0.000         0.000
  WSL2034                     87.074         0.000         0.000         0.000         0.000
  WSL2037                     87.684         0.000         0.000         0.000         0.000
  WSL2038                    122.906         0.000         0.000         0.000         0.000
  WSL2039                    128.231         0.000         0.000         0.000         0.000
  WSL2041                    125.893         0.000         0.000         0.000         0.000
  WSL2124                    138.224         0.000         0.000         0.000         0.000
  WSL2126                    139.026         0.000         0.000         0.000         0.000
  WSL2127                    140.419         0.000         0.000         0.000         0.000
  WSL2128                    141.874         0.000         0.000         0.000         0.000
  WSL2130                    176.866         0.000         0.000         0.000         0.000
  WSL2146                    178.200         0.000         0.000         0.000         0.000
  WSL2147                    178.920         0.000         0.000         0.000         0.000
  WSL2148                    179.974         0.000         0.000         0.000         0.000
  WSL2294                    494.649         0.000         0.000         0.000         0.000
  WSL2295                    495.395         0.000         0.000         0.000         0.000
  WSL2296                    504.479         0.000         0.000         0.000         0.000
  WSL2297                    508.026         0.000         0.000         0.000         0.000
  WSL2298                    498.764         0.000         0.000         0.000         0.000
  WSL2301                    509.023         0.000         0.000         0.000         0.000
  WSL2302                    513.959         0.000         0.000         0.000         0.000
  WSL2357                     38.555         0.000         0.000         0.000         0.000
  WSL2358                     40.142         0.000         0.000         0.000         0.000
  WSL2359                     41.094         0.000         0.000         0.000         0.000
  WSL2361                     78.587         0.000         0.000         0.000         0.000
  WSL2362                     79.837         0.000         0.000         0.000         0.000
  WSL2441                    493.886         0.000         0.000         0.000         0.000
  WSL2442                    365.191         0.000         0.000         0.000         0.000
  WSL2443                    364.054         0.000         0.000         0.000         0.000
  WSL2444                    361.009         0.000         0.000         0.000         0.000
  WSL2446                    359.155         0.000         0.000         0.000         0.000
  WSL2447                    355.673         0.000         0.000         0.000         0.000
  WSL2448                    351.883         0.000         0.000         0.000         0.000
  WSL2449                    267.115         0.000         0.000         0.000         0.000
  WSL2450                    264.748         0.000         0.000         0.000         0.000
  WSL2451                    263.781         0.000         0.000         0.000         0.000
  WSL2452                    262.342         0.000         0.000         0.000         0.000
  WSL2454                    258.311         0.000         0.000         0.000         0.000
  WSL2478                    256.532         0.000         0.000         0.000         0.000
  WSL2479                    229.733         0.000         0.000         0.000         0.000
  WSL2480                    241.413         0.000         0.000         0.000         0.000
  WSL2482                    237.664         0.000         0.000         0.000         0.000
  WSL2484                    216.411         0.000         0.000         0.000         0.000
  WSL2493                    367.745         0.000         0.000         0.000         0.000
  WSL2867                    773.499         0.000         0.000         0.000         0.000
  WSL2868                    777.072         0.000         0.000         0.000         0.000
  5                           51.266         0.000         0.000         0.000         0.000
  WSL348                    1330.168         0.000         0.000         0.000         0.000
  WSL175                    1336.684         0.000         0.000         0.000         0.000
  WSL1467                   1210.065         0.000         0.000         0.000         0.000
  WSL1473                   1217.062         0.000         0.000         0.000         0.000
  XRpipe                    1349.595         0.000         0.000         0.000         0.000
  8                           14.829         0.000         0.000         0.000         0.000
  19                           0.000         0.000         0.000         0.000         0.000
  17                           0.000         0.000         0.000         0.000         0.000
  4                            0.000         0.000         0.000         0.000         0.000
  outletpipe                 905.494         0.000         0.000         0.000         0.000
  11                           0.000         0.000         0.000         0.000         0.000
  20                           0.000         0.000         0.000         0.000         0.000
  1                           20.228         0.000         0.000         0.000         0.000
  28                          11.522         0.000         0.000         0.000         0.000
  30                           0.000         0.000         0.000         0.000         0.000
  2                         1693.948         0.000         0.000         0.000         0.000
  XR-Pump-1                   99.552         0.000         0.000         0.000         0.000
  XR-Pump-3                   99.552         0.000         0.000         0.000         0.000
  XR-Pump-2                   99.552         0.000         0.000         0.000         0.000
  XR-Pump-4                   99.552         0.000         0.000         0.000         0.000
  CC-Pump-1                   16.875         0.000         0.000         0.000         0.000
  CC-Pump-2                   68.626         0.000         0.000         0.000         0.000
  JK-Pump-1                   19.812         0.000         0.000         0.000         0.000
  JK-Pump-2                   61.968         0.000         0.000         0.000         0.000
  

  Analysis begun on:  Mon Oct 29 01:05:04 2018
  Analysis ended on:  Mon Oct 29 01:05:08 2018
  Total elapsed time: 00:00:04