
  EPA STORM WATER MANAGEMENT MODEL - VERSION 5.1 (Build 5.2.0.dev1)
  --------------------------------------------------------------

  
  *********************************************************
  NOTE: The summary statistics displayed in this report are
  based on results found at every computational time step,  
  not just on results from each reporting time step.
  *********************************************************
  
  ****************
  Analysis Options
  ****************
  Flow Units ............... MLD
  Process Models:
    Rainfall/Runoff ........ YES
    RDII ................... NO
    Snowmelt ............... NO
    Groundwater ............ NO
    Flow Routing ........... YES
    Ponding Allowed ........ NO
    Water Quality .......... YES
  Infiltration Method ...... GREEN_AMPT
  Flow Routing Method ...... DYNWAVE
  Starting Date ............ 08/28/2015 08:00:00
  Ending Date .............. 08/28/2015 12:00:00
  Antecedent Dry Days ...... 4.0
  Report Time Step ......... 00:01:00
  Wet Time Step ............ 00:01:00
  Dry Time Step ............ 00:01:00
  Routing Time Step ........ 5.00 sec
  Variable Time Step ....... YES
  Maximum Trials ........... 8
  Number of Threads ........ 1
  Head Tolerance ........... 0.001500 m
  
  
  **************************        Volume         Depth
  Runoff Quantity Continuity     hectare-m            mm
  **************************     ---------       -------
  Total Precipitation ......         2.193         6.632
  Evaporation Loss .........         0.000         0.000
  Infiltration Loss ........         1.315         3.978
  Surface Runoff ...........         0.358         1.083
  Final Storage ............         0.520         1.574
  Continuity Error (%) .....        -0.041
  
  
  **************************           COD         NH3-N            TN            TP            SS
  Runoff Quality Continuity             kg            kg            kg            kg            kg
  **************************    ----------    ----------    ----------    ----------    ----------
  Initial Buildup ..........     15404.640         0.000         0.000         0.000         0.000
  Surface Buildup ..........       147.174         0.000         0.000         0.000         0.000
  Wet Deposition ...........         0.000         0.000         0.000         0.000         0.000
  Sweeping Removal .........         0.000         0.000         0.000         0.000         0.000
  Infiltration Loss ........        44.602         0.000         0.000         0.000         0.000
  BMP Removal ..............         0.000         0.000         0.000         0.000         0.000
  Surface Runoff ...........       199.860         0.000         0.000         0.000         0.000
  Remaining Buildup ........     15307.044         0.000         0.000         0.000         0.000
  Continuity Error (%) .....         0.002         0.000         0.000         0.000         0.000
  
  
  **************************        Volume        Volume
  Flow Routing Continuity        hectare-m      10^6 ltr
  **************************     ---------     ---------
  Dry Weather Inflow .......         0.000         0.000
  Wet Weather Inflow .......         0.357         3.570
  Groundwater Inflow .......         0.000         0.000
  RDII Inflow ..............         0.000         0.000
  External Inflow ..........         0.621         6.206
  External Outflow .........         0.898         8.983
  Flooding Loss ............         0.000         0.000
  Evaporation Loss .........         0.000         0.000
  Exfiltration Loss ........         0.000         0.000
  Initial Stored Volume ....         0.000         0.000
  Final Stored Volume ......         0.091         0.908
  Continuity Error (%) .....        -1.179
  
  
  **************************           COD         NH3-N            TN            TP            SS
  Quality Routing Continuity            kg            kg            kg            kg            kg
  **************************    ----------    ----------    ----------    ----------    ----------
  Dry Weather Inflow .......         0.000         0.000         0.000         0.000         0.000
  Wet Weather Inflow .......       199.441         0.000         0.000         0.000         0.000
  Groundwater Inflow .......         0.000         0.000         0.000         0.000         0.000
  RDII Inflow ..............         0.000         0.000         0.000         0.000         0.000
  External Inflow ..........      1036.426         0.000         0.000         0.000         0.000
  External Outflow .........      1086.642         0.000         0.000         0.000         0.000
  Flooding Loss ............         0.000         0.000         0.000         0.000         0.000
  Exfiltration Loss ........         0.000         0.000         0.000         0.000         0.000
  Mass Reacted .............         0.000         0.000         0.000         0.000         0.000
  Initial Stored Mass ......         0.000         0.000         0.000         0.000         0.000
  Final Stored Mass ........        88.719         0.000         0.000         0.000         0.000
  Continuity Error (%) .....         4.896         0.000         0.000         0.000         0.000
  
  
  *************************
  Highest Continuity Errors
  *************************
  Node WS02003123 (2.01%)
  Node WS02003099 (1.57%)
  Node WS02003094 (1.33%)
  
  
  ***************************
  Time-Step Critical Elements
  ***************************
  Link outletpipe (81.38%)
  Link WSL2448 (13.99%)
  Link WSL1477 (1.67%)
  Link XRpipe (1.65%)
  
  
  ********************************
  Highest Flow Instability Indexes
  ********************************
  Link WSL1477 (34)
  Link WSL1516 (29)
  Link WSL84 (7)
  Link WSL1515 (5)
  Link WSL2867 (4)
  
  
  *************************
  Routing Time Step Summary
  *************************
  Minimum Time Step           :     0.50 sec
  Average Time Step           :     1.00 sec
  Maximum Time Step           :     5.00 sec
  Percent in Steady State     :    -0.00
  Average Iterations per Step :     2.35
  Percent Not Converging      :     4.81
  
  
  ***************************
  Subcatchment Runoff Summary
  ***************************
  
  --------------------------------------------------------------------------------------------------------
                            Total      Total      Total      Total      Total       Total     Peak  Runoff
                           Precip      Runon       Evap      Infil     Runoff      Runoff   Runoff   Coeff
  Subcatchment                 mm         mm         mm         mm         mm    10^6 ltr      MLD
  --------------------------------------------------------------------------------------------------------
  1                          6.63       4.12       0.00       5.71       3.02        0.04     0.89   0.281
  2                          6.63       0.00       0.00       4.88       1.55        0.05     1.33   0.233
  3                          6.63       0.00       0.00       4.88       1.50        0.08     1.90   0.226
  4                          6.63       0.00       0.00       4.88       1.57        0.04     1.09   0.237
  5                          6.63       3.87       0.00       5.70       2.86        0.05     1.18   0.272
  6                          6.63       0.00       0.00       4.88       1.50        0.07     1.85   0.227
  7                          6.63       0.00       0.00       2.85       1.15        1.84    33.46   0.173
  8                          6.63       0.00       0.00       4.88       1.52        0.06     1.63   0.229
  9                          6.63       1.49       0.00       5.23       1.94        0.07     1.80   0.238
  10                         6.63       2.29       0.00       5.36       2.28        0.04     1.05   0.255
  11                         6.63       0.00       0.00       4.88       1.60        0.03     0.84   0.242
  13                         6.63      19.30       0.00       7.03      12.83        0.02     0.39   0.495
  14                         6.63      22.27       0.00       7.69      15.52        0.03     0.67   0.537
  16                         6.63       3.04       0.00       5.32       2.61        0.02     0.43   0.269
  17                         6.63       0.00       0.00       4.88       1.54        0.06     1.44   0.232
  18                         6.63       0.00       0.00       4.88       1.52        0.07     1.66   0.229
  19                         6.63       0.00       0.00       4.88       1.58        0.04     1.04   0.238
  20                         6.63       1.42       0.00       5.22       1.97        0.06     1.38   0.244
  21                         6.63       3.62       0.00       5.64       2.79        0.04     1.04   0.272
  22                         6.63       2.87       0.00       5.54       2.52        0.04     1.12   0.265
  23                         6.63       0.00       0.00       4.87       1.70        0.01     0.34   0.256
  24                         6.63       0.00       0.00       4.88       1.59        0.03     0.92   0.240
  25                         6.63       0.00       0.00       4.87       1.65        0.02     0.52   0.249
  26                         6.63       0.00       0.00       4.88       1.60        0.03     0.85   0.241
  27                         6.63       0.00       0.00       4.88       1.60        0.03     0.83   0.242
  28                         6.63       3.86       0.00       5.69       2.72        0.07     1.69   0.259
  29                         6.63       1.49       0.00       5.19       1.98        0.05     1.20   0.244
  30                         6.63       5.88       0.00       6.05       3.88        0.04     0.87   0.310
  31                         6.63       0.00       0.00       4.88       1.54        0.05     1.40   0.233
  32                         6.63       0.00       0.00       4.88       1.50        0.08     1.91   0.226
  33                         6.63       0.00       0.00       4.87       1.68        0.01     0.41   0.253
  34                         6.63       3.25       0.00       5.61       2.61        0.05     1.32   0.264
  35                         6.63       0.00       0.00       4.88       1.56        0.05     1.22   0.235
  36                         6.63       2.78       0.00       5.51       2.21        0.13     3.04   0.235
  37                         6.63       0.00       0.00       4.88       1.52        0.07     1.71   0.228
  38                         6.63       0.00       0.00       4.88       1.56        0.05     1.18   0.236
  39                         6.63       0.00       0.00       4.88       1.55        0.05     1.35   0.233
  40                         6.63       0.80       0.00       5.08       1.74        0.07     1.70   0.235
  41                         6.63       0.00       0.00       4.88       1.60        0.03     0.83   0.242
  42                         6.63       0.00       0.00       4.88       1.59        0.04     0.95   0.240
  43                         6.63       0.00       0.00       4.84       1.75        0.01     0.19   0.264
  44                         6.63      36.90       0.00       8.95      24.35        0.09     1.78   0.559
  45                         6.63       0.00       0.00       4.87       1.66        0.02     0.48   0.251
  46                         6.63       2.26       0.00       5.41       2.27        0.05     1.22   0.256
  47                         6.63       0.00       0.00       4.87       1.66        0.02     0.51   0.250
  48                         6.63       1.16       0.00       5.17       1.98        0.03     0.82   0.253
  49                         6.63       0.00       0.00       4.88       1.59        0.03     0.90   0.240
  50                         6.63       1.93       0.00       5.33       2.20        0.04     0.99   0.257
  51                         6.63       1.60       0.00       5.26       2.06        0.04     1.12   0.251
  52                         6.63       0.00       0.00       4.88       1.59        0.03     0.90   0.240
  53                         6.63       0.79       0.00       5.08       1.85        0.03     0.86   0.249
  54                         6.63       0.00       0.00       4.87       1.68        0.01     0.39   0.253
  55                         6.63       1.70       0.00       5.28       2.26        0.02     0.51   0.271
  56                         6.63       2.47       0.00       5.44       2.33        0.05     1.24   0.256
  57                         6.63       0.00       0.00       4.88       1.50        0.08     1.87   0.227
  58                         6.63       0.00       0.00       4.87       1.66        0.02     0.48   0.251
  59                         6.63       0.00       0.00       4.87       1.68        0.01     0.40   0.253
  60                         6.63       3.80       0.00       5.70       3.22        0.02     0.44   0.308
  61                         6.63       0.00       0.00       4.89       1.31        0.24     5.44   0.198
  62                         6.63       0.00       0.00       4.89       1.30        0.25     5.68   0.197
  63                         6.63       0.00       0.00       4.87       1.67        0.02     0.45   0.251
  64                         6.63       0.00       0.00       4.87       1.65        0.02     0.54   0.249
  65                         6.63       0.00       0.00       4.88       1.62        0.03     0.75   0.244
  
  
  ****************************
  Subcatchment Washoff Summary
  ****************************
  
  ------------------------------------------------------------------------------------------
                                 COD         NH3-N            TN            TP            SS
  Subcatchment                    kg            kg            kg            kg            kg
  ------------------------------------------------------------------------------------------
  1                            1.349         0.000         0.000         0.000         0.000
  2                            0.000         0.000         0.000         0.000         0.000
  3                            0.000         0.000         0.000         0.000         0.000
  4                            2.337         0.000         0.000         0.000         0.000
  5                            5.518         0.000         0.000         0.000         0.000
  6                            3.933         0.000         0.000         0.000         0.000
  7                           78.732         0.000         0.000         0.000         0.000
  8                            3.463         0.000         0.000         0.000         0.000
  9                            5.618         0.000         0.000         0.000         0.000
  10                           4.388         0.000         0.000         0.000         0.000
  11                           1.815         0.000         0.000         0.000         0.000
  13                          10.778         0.000         0.000         0.000         0.000
  14                          10.110         0.000         0.000         0.000         0.000
  16                           3.842         0.000         0.000         0.000         0.000
  17                           3.069         0.000         0.000         0.000         0.000
  18                           3.532         0.000         0.000         0.000         0.000
  19                           2.239         0.000         0.000         0.000         0.000
  20                           4.290         0.000         0.000         0.000         0.000
  21                           5.011         0.000         0.000         0.000         0.000
  22                           4.565         0.000         0.000         0.000         0.000
  23                           0.735         0.000         0.000         0.000         0.000
  24                           1.979         0.000         0.000         0.000         0.000
  25                           1.125         0.000         0.000         0.000         0.000
  26                           1.831         0.000         0.000         0.000         0.000
  27                           1.791         0.000         0.000         0.000         0.000
  28                           8.855         0.000         0.000         0.000         0.000
  29                           4.425         0.000         0.000         0.000         0.000
  30                           5.322         0.000         0.000         0.000         0.000
  31                           2.984         0.000         0.000         0.000         0.000
  32                           4.051         0.000         0.000         0.000         0.000
  33                           0.889         0.000         0.000         0.000         0.000
  34                           5.681         0.000         0.000         0.000         0.000
  35                           2.610         0.000         0.000         0.000         0.000
  36                          12.547         0.000         0.000         0.000         0.000
  37                           3.640         0.000         0.000         0.000         0.000
  38                           2.537         0.000         0.000         0.000         0.000
  39                           2.885         0.000         0.000         0.000         0.000
  40                           4.570         0.000         0.000         0.000         0.000
  41                           1.783         0.000         0.000         0.000         0.000
  42                           2.048         0.000         0.000         0.000         0.000
  43                           0.411         0.000         0.000         0.000         0.000
  44                          24.335         0.000         0.000         0.000         0.000
  45                           1.030         0.000         0.000         0.000         0.000
  46                           4.622         0.000         0.000         0.000         0.000
  47                           1.099         0.000         0.000         0.000         0.000
  48                           2.428         0.000         0.000         0.000         0.000
  49                           1.948         0.000         0.000         0.000         0.000
  50                           3.429         0.000         0.000         0.000         0.000
  51                           3.625         0.000         0.000         0.000         0.000
  52                           1.948         0.000         0.000         0.000         0.000
  53                           2.326         0.000         0.000         0.000         0.000
  54                           0.853         0.000         0.000         0.000         0.000
  55                           1.691         0.000         0.000         0.000         0.000
  56                           4.972         0.000         0.000         0.000         0.000
  57                           3.972         0.000         0.000         0.000         0.000
  58                           1.039         0.000         0.000         0.000         0.000
  59                           0.862         0.000         0.000         0.000         0.000
  60                           2.126         0.000         0.000         0.000         0.000
  61                          10.911         0.000         0.000         0.000         0.000
  62                          11.357         0.000         0.000         0.000         0.000
  63                           0.978         0.000         0.000         0.000         0.000
  64                           1.177         0.000         0.000         0.000         0.000
  65                           1.615         0.000         0.000         0.000         0.000
  ------------------------------------------------------------------------------------------
  System                     315.632         0.000         0.000         0.000         0.000
  
  
  ******************
  Node Depth Summary
  ******************
  
  ---------------------------------------------------------------------------------
                                 Average  Maximum  Maximum  Time of Max    Reported
                                   Depth    Depth      HGL   Occurrence   Max Depth
  Node                 Type       Meters   Meters   Meters  days hr:min      Meters
  ---------------------------------------------------------------------------------
  WS01000070           JUNCTION     0.00     0.00     0.00     0  00:00        0.00
  WS01000323           JUNCTION     0.00     0.00     0.00     0  00:00        0.00
  WS01000533           JUNCTION     0.00     0.00     6.86     0  00:00        0.00
  WS01005172           JUNCTION     0.00     0.00     0.00     0  00:00        0.00
  WS01005181           JUNCTION     0.00     0.00     0.00     0  00:00        0.00
  WS01009841           JUNCTION     0.00     0.00     0.00     0  00:00        0.00
  WS02000078           JUNCTION     0.00     0.00     0.00     0  00:00        0.00
  WS02000112           JUNCTION     0.00     0.00     0.00     0  00:00        0.00
  WS02000136           JUNCTION     0.00     0.00     0.00     0  00:00        0.00
  WS02001211           JUNCTION     0.22     0.44     5.28     0  03:15        0.44
  WS02001212           JUNCTION     0.18     0.38     5.18     0  03:15        0.38
  WS02001213           JUNCTION     0.26     0.48     5.18     0  03:14        0.48
  WS02003059           JUNCTION     0.26     0.45     5.10     0  03:13        0.45
  WS02003060           JUNCTION     0.34     0.53     5.08     0  03:14        0.53
  WS02003066           JUNCTION     0.16     0.24     5.54     0  02:55        0.24
  WS02003067           JUNCTION     0.26     0.39     5.71     0  02:54        0.39
  WS02003071           JUNCTION     0.39     0.59     4.99     0  03:14        0.59
  WS02003072           JUNCTION     0.32     0.51     4.88     0  03:14        0.51
  WS02003073           JUNCTION     0.40     0.63     4.87     0  03:23        0.62
  WS02003076           JUNCTION     0.37     0.60     4.83     0  03:23        0.59
  WS02003077           JUNCTION     0.09     0.14     5.15     0  03:14        0.14
  WS02003078           JUNCTION     0.03     0.05     6.95     0  03:06        0.05
  WS02003079           JUNCTION     0.08     0.13     7.04     0  03:06        0.13
  WS02003080           JUNCTION     0.17     0.25     5.28     0  03:15        0.25
  WS02003081           JUNCTION     0.21     0.31     5.35     0  03:15        0.31
  WS02003082           JUNCTION     0.20     0.31     5.39     0  03:15        0.31
  WS02003083           JUNCTION     0.23     0.34     5.43     0  03:14        0.34
  WS02003084           JUNCTION     0.23     0.35     5.45     0  03:14        0.35
  WS02003085           JUNCTION     0.17     0.28     5.45     0  03:14        0.28
  WS02003086           JUNCTION     0.19     0.30     5.50     0  03:13        0.30
  WS02003087           JUNCTION     0.21     0.32     5.54     0  03:13        0.32
  WS02003088           JUNCTION     0.17     0.28     5.57     0  03:15        0.28
  WS02003089           JUNCTION     0.13     0.21     5.67     0  03:15        0.21
  WS02003090           JUNCTION     0.17     0.26     5.73     0  03:14        0.25
  WS02003091           JUNCTION     0.10     0.15     5.95     0  03:14        0.15
  WS02003092           JUNCTION     0.01     0.01     7.65     0  01:32        0.01
  WS02003093           JUNCTION     0.02     0.02     7.36     0  01:54        0.02
  WS02003094           JUNCTION     0.08     0.13     7.35     0  03:01        0.13
  WS02003098           JUNCTION     0.05     0.08     7.25     0  03:03        0.08
  WS02003099           JUNCTION     0.10     0.15     7.19     0  03:04        0.15
  WS02003102           JUNCTION     0.08     0.14     7.17     0  03:03        0.14
  WS02003103           JUNCTION     0.10     0.16     7.13     0  03:04        0.16
  WS02003104           JUNCTION     0.09     0.15     7.11     0  03:05        0.15
  WS02003106           JUNCTION     0.10     0.15     7.08     0  03:05        0.15
  WS02003110           JUNCTION     0.10     0.16     7.41     0  03:06        0.15
  WS02003111           JUNCTION     0.09     0.15     7.24     0  03:06        0.15
  WS02003115           JUNCTION     0.12     0.19     7.09     0  03:05        0.19
  WS02003116           JUNCTION     0.14     0.22     6.93     0  03:06        0.22
  WS02003118           JUNCTION     0.12     0.19     6.81     0  03:06        0.19
  WS02003122           JUNCTION     0.17     0.28     6.65     0  03:08        0.28
  WS02003123           JUNCTION     0.10     0.21     6.65     0  03:08        0.21
  WS02003126           JUNCTION     0.05     0.13     6.65     0  03:08        0.13
  WS02003187           JUNCTION     0.18     0.31     6.64     0  03:08        0.31
  WS02003188           JUNCTION     0.24     0.36     6.62     0  03:09        0.36
  WS02003190           JUNCTION     0.23     0.35     6.60     0  03:09        0.35
  WS02003193           JUNCTION     0.22     0.34     6.58     0  03:09        0.34
  WS02003195           JUNCTION     0.21     0.33     6.55     0  03:09        0.33
  WS02003196           JUNCTION     0.23     0.35     6.53     0  03:10        0.35
  WS02003198           JUNCTION     0.23     0.33     6.50     0  03:10        0.33
  WS02003200           JUNCTION     0.15     0.22     6.38     0  03:13        0.22
  WS02003201           JUNCTION     0.14     0.22     6.36     0  03:14        0.22
  WS02003202           JUNCTION     0.15     0.24     6.30     0  03:13        0.24
  WS02003203           JUNCTION     0.10     0.15     6.15     0  03:14        0.15
  WS02003215           JUNCTION     0.10     0.17     7.03     0  03:05        0.17
  WS02004050           JUNCTION     0.26     0.38     4.60     0  03:16        0.38
  WS02004053           JUNCTION     0.00     0.00     0.00     0  00:00        0.00
  WS02004136           JUNCTION     0.08     0.21     6.94     0  00:01        0.18
  WS02004139           JUNCTION     0.17     0.37     5.33     0  03:16        0.37
  WS02004401           JUNCTION     0.27     0.42     6.42     0  02:50        0.42
  WS02004402           JUNCTION     0.28     0.43     6.39     0  02:51        0.43
  WS02004403           JUNCTION     0.26     0.42     6.35     0  02:51        0.42
  WS02004404           JUNCTION     0.34     0.50     6.35     0  02:51        0.50
  WS02004405           JUNCTION     0.34     0.50     6.34     0  02:51        0.50
  WS02004406           JUNCTION     0.32     0.48     6.31     0  02:52        0.48
  WS02004407           JUNCTION     0.30     0.45     6.25     0  02:52        0.45
  WS02004409           JUNCTION     0.29     0.43     6.20     0  02:52        0.43
  WS02004410           JUNCTION     0.29     0.42     6.14     0  02:53        0.42
  WS02004411           JUNCTION     0.27     0.39     6.07     0  02:52        0.39
  WS02004412           JUNCTION     0.22     0.33     5.97     0  02:54        0.33
  WS02004413           JUNCTION     0.23     0.34     5.81     0  02:54        0.34
  WS02004997           JUNCTION     5.96     6.37     7.98     0  03:00        6.30
  WS02005122           JUNCTION     0.05     0.09     9.61     0  03:01        0.09
  WS02005123           JUNCTION     0.05     0.08     9.54     0  03:01        0.08
  WS02005124           JUNCTION     0.05     0.07     9.34     0  03:01        0.07
  WS02005126           JUNCTION     0.07     0.12     9.22     0  03:01        0.12
  WS02005127           JUNCTION     0.07     0.11     9.14     0  03:02        0.11
  WS02005129           JUNCTION     0.07     0.11     9.04     0  03:01        0.11
  WS02005131           JUNCTION     0.08     0.13     8.89     0  03:02        0.13
  WS02005132           JUNCTION     0.10     0.17     8.81     0  03:03        0.17
  WS02005133           JUNCTION     0.10     0.15     8.76     0  03:03        0.15
  WS02005135           JUNCTION     0.09     0.14     8.70     0  03:03        0.14
  WS02005137           JUNCTION     0.11     0.18     8.60     0  03:04        0.18
  WS02005138           JUNCTION     0.12     0.19     8.54     0  03:04        0.19
  WS02005140           JUNCTION     0.09     0.14     8.46     0  03:05        0.14
  WS02005142           JUNCTION     0.11     0.18     8.34     0  03:03        0.18
  WS02005144           JUNCTION     0.11     0.17     8.22     0  03:04        0.17
  WS02005145           JUNCTION     0.14     0.22     8.12     0  03:04        0.22
  WS02005147           JUNCTION     0.10     0.17     8.04     0  03:05        0.17
  WS02005152           JUNCTION     0.12     0.18     7.90     0  03:05        0.18
  WS02005154           JUNCTION     0.09     0.14     7.78     0  03:05        0.14
  WS02005155           JUNCTION     0.12     0.19     7.50     0  03:05        0.19
  WS02005162           JUNCTION     0.11     0.14     8.14     0  03:03        0.14
  WS02005163           JUNCTION     0.11     0.15     8.19     0  03:04        0.15
  WS02005164           JUNCTION     0.11     0.14     8.22     0  03:03        0.14
  WS02005165           JUNCTION     0.08     0.11     8.29     0  03:04        0.11
  WS02005166           JUNCTION     0.08     0.11     8.38     0  03:03        0.11
  WS02005167           JUNCTION     0.10     0.14     8.44     0  03:02        0.14
  WS02005170           JUNCTION     0.07     0.10     8.50     0  03:03        0.10
  WS02005171           JUNCTION     0.08     0.10     8.57     0  03:02        0.10
  WS02005175           JUNCTION     0.07     0.10     8.67     0  03:01        0.10
  WS02005176           JUNCTION     0.07     0.09     8.71     0  03:04        0.09
  WS02005180           JUNCTION     0.08     0.11     8.76     0  03:03        0.11
  WS02005181           JUNCTION     0.06     0.09     8.79     0  03:03        0.09
  WS02005183           JUNCTION     0.04     0.06     8.92     0  03:02        0.06
  WS02005184           JUNCTION     0.05     0.08     8.99     0  03:01        0.08
  WS02005185           JUNCTION     0.04     0.06     9.08     0  03:01        0.06
  WS02005186           JUNCTION     0.03     0.07     9.18     0  03:01        0.07
  WS02005188           JUNCTION     0.11     0.18     8.12     0  03:01        0.18
  WS02005191           JUNCTION     0.14     0.21     8.11     0  03:01        0.21
  WS02005192           JUNCTION     0.15     0.24     8.11     0  03:00        0.23
  WS02005193           JUNCTION     0.15     0.27     8.09     0  02:59        0.27
  WS02005196           JUNCTION     0.15     0.25     8.10     0  03:00        0.24
  WS02006109           JUNCTION     0.32     0.49     7.11     0  02:47        0.49
  WS02006110           JUNCTION     0.30     0.45     7.05     0  02:46        0.45
  WS02006111           JUNCTION     0.15     0.24     6.82     0  02:47        0.24
  WS02006112           JUNCTION     0.29     0.45     6.57     0  02:48        0.45
  WS02006113           JUNCTION     0.25     0.38     6.97     0  02:47        0.38
  WS02006115           JUNCTION     0.25     0.40     6.50     0  02:48        0.40
  WS02006116           JUNCTION     0.28     0.43     6.47     0  02:49        0.43
  WS02006183           JUNCTION     0.00     0.00     0.00     0  00:00        0.00
  WS02006228           JUNCTION     0.32     0.50     7.15     0  02:46        0.50
  WS02006229           JUNCTION     0.29     0.48     7.17     0  02:46        0.48
  WS02006230           JUNCTION     0.27     0.47     7.22     0  02:46        0.47
  WS02006231           JUNCTION     0.21     0.37     7.27     0  02:45        0.37
  WS02006232           JUNCTION     0.20     0.35     7.38     0  02:45        0.35
  WS02006234           JUNCTION     0.20     0.35     7.51     0  02:45        0.35
  WS02006235           JUNCTION     0.25     0.42     7.59     0  02:44        0.41
  WS02006238           JUNCTION     0.25     0.43     7.61     0  02:44        0.43
  WS02006239           JUNCTION     0.25     0.43     7.64     0  02:44        0.43
  WS02006242           JUNCTION     0.25     0.41     7.71     0  02:43        0.41
  WS02006240           JUNCTION     0.21     0.37     7.66     0  02:43        0.37
  WS02006243           JUNCTION     0.18     0.33     7.75     0  03:01        0.33
  WS02006245           JUNCTION     0.19     0.34     7.83     0  03:00        0.34
  WS02006247           JUNCTION     0.21     0.37     7.88     0  03:00        0.36
  WS02006248           JUNCTION     0.17     0.33     7.92     0  03:00        0.32
  WS02006249           JUNCTION     0.20     0.36     7.96     0  03:00        0.36
  WS02006251           JUNCTION     0.19     0.36     8.03     0  02:59        0.36
  WS02006253           JUNCTION     0.14     0.29     8.09     0  02:59        0.27
  WS02618401           JUNCTION     0.00     0.00     0.00     0  00:00        0.00
  WS8802               JUNCTION     0.00     0.00     4.38     0  00:00        0.00
  WSA1649              JUNCTION     0.00     0.00     0.00     0  00:00        0.00
  WSF200               JUNCTION     0.15     0.22     5.32     0  02:55        0.22
  XR-Inflow            JUNCTION     5.79     6.24     8.05     0  03:00        6.17
  WS02004114           JUNCTION     5.96     6.31     7.91     0  03:00        6.28
  outfall-24           OUTFALL      0.09     0.14     5.64     0  03:00        0.14
  outfall-2            OUTFALL      0.00     0.00     7.00     0  00:00        0.00
  outfall-5            OUTFALL      0.00     0.00     7.67     0  00:00        0.00
  outfall-8            OUTFALL      0.00     0.00     8.00     0  00:00        0.00
  outfall-14           OUTFALL      0.00     0.00     7.66     0  00:00        0.00
  outfall-16           OUTFALL      0.00     0.00     8.39     0  00:00        0.00
  outfall-17           OUTFALL      0.00     0.00     8.15     0  00:00        0.00
  outfall-27           OUTFALL      0.00     0.00     7.90     0  00:00        0.00
  outfall-28           OUTFALL      0.00     0.00     7.30     0  00:00        0.00
  67                   OUTFALL      0.00     0.00    10.20     0  00:00        0.00
  12                   OUTFALL      0.26     0.38     0.38     0  03:16        0.38
  XR-storage           STORAGE      7.02     7.37     7.87     0  03:00        7.37
  CC-storage           STORAGE      0.69     3.37     6.55     0  03:59        3.31
  JK-storage           STORAGE      0.89     3.84     6.84     0  02:21        3.84
  
  
  *******************
  Node Inflow Summary
  *******************
  
  -------------------------------------------------------------------------------------------------
                                  Maximum  Maximum                  Lateral       Total        Flow
                                  Lateral    Total  Time of Max      Inflow      Inflow     Balance
                                   Inflow   Inflow   Occurrence      Volume      Volume       Error
  Node                 Type           MLD      MLD  days hr:min    10^6 ltr    10^6 ltr     Percent
  -------------------------------------------------------------------------------------------------
  WS01000070           JUNCTION      0.00     0.00     0  00:00           0           0       0.000 ltr
  WS01000323           JUNCTION      0.00     0.00     0  00:00           0           0       0.000 ltr
  WS01000533           JUNCTION      0.00     0.00     0  00:00           0           0       0.000 ltr
  WS01005172           JUNCTION      0.00     0.00     0  00:00           0           0       0.000 ltr
  WS01005181           JUNCTION      0.00     0.00     0  00:00           0           0       0.000 ltr
  WS01009841           JUNCTION      0.00     0.00     0  00:00           0           0       0.000 ltr
  WS02000078           JUNCTION      0.00     0.00     0  00:00           0           0       0.000 ltr
  WS02000112           JUNCTION      0.00     0.00     0  00:00           0           0       0.000 ltr
  WS02000136           JUNCTION      0.00     0.00     0  00:00           0           0       0.000 ltr
  WS02001211           JUNCTION      0.25    35.75     0  00:02      0.0407        3.06       0.850
  WS02001212           JUNCTION      0.21    35.15     0  00:04      0.0346        3.07       0.483
  WS02001213           JUNCTION      0.30    34.14     0  03:21      0.0489         3.1       0.590
  WS02003059           JUNCTION      0.23    36.94     0  00:05      0.0378        3.12       0.768
  WS02003060           JUNCTION      0.16    69.22     0  03:13      0.0252        5.58       0.628
  WS02003066           JUNCTION      0.08    43.62     0  02:55      0.0122        2.44       0.151
  WS02003067           JUNCTION      0.26    38.80     0  02:54      0.0395        2.43       0.286
  WS02003071           JUNCTION      0.35    68.70     0  03:14      0.0538         5.6       0.652
  WS02003072           JUNCTION      0.24    68.95     0  03:14      0.0382         5.6       0.399
  WS02003073           JUNCTION      0.07    82.58     0  03:15     0.00978        6.52       0.339
  WS02003076           JUNCTION      0.72    83.97     0  03:15        0.12        6.62       0.255
  WS02003077           JUNCTION      0.04    13.68     0  03:13      0.0059       0.937       0.187
  WS02003078           JUNCTION      0.03     3.91     0  03:06     0.00419       0.192      -0.068
  WS02003079           JUNCTION      0.04     3.34     0  03:05     0.00561       0.188       0.364
  WS02003080           JUNCTION      0.08    10.89     0  03:15      0.0113       0.743       0.433
  WS02003081           JUNCTION      0.03    10.83     0  03:15     0.00406       0.735       0.581
  WS02003082           JUNCTION      0.05    10.82     0  03:14     0.00692       0.735       0.547
  WS02003083           JUNCTION      0.02    10.80     0  03:14      0.0027       0.733       0.563
  WS02003084           JUNCTION      0.06    10.80     0  03:13     0.00885       0.733       0.383
  WS02003085           JUNCTION      0.02    10.77     0  03:13     0.00307       0.726       0.282
  WS02003086           JUNCTION      0.04    10.78     0  03:13     0.00599       0.726       0.413
  WS02003087           JUNCTION      0.06    10.77     0  03:16     0.00824       0.723       0.464
  WS02003088           JUNCTION      0.07    10.85     0  03:15      0.0105       0.717       0.352
  WS02003089           JUNCTION      0.08    11.07     0  03:15      0.0113       0.709       0.227
  WS02003090           JUNCTION      0.04    10.96     0  03:14     0.00647       0.699       0.243
  WS02003091           JUNCTION      0.01    10.97     0  03:14     0.00171       0.693       0.098
  WS02003092           JUNCTION      0.07     0.07     0  01:00     0.00989     0.00989       0.393
  WS02003093           JUNCTION      0.02     0.09     0  01:24     0.00306      0.0129       1.004
  WS02003094           JUNCTION      1.85     1.92     0  03:01      0.0827      0.0955       1.343
  WS02003098           JUNCTION      0.02     1.87     0  03:02     0.00293      0.0972       0.727
  WS02003099           JUNCTION      0.07     1.90     0  03:03      0.0109       0.107       1.592
  WS02003102           JUNCTION      1.65     3.32     0  03:01      0.0686       0.174       0.759
  WS02003103           JUNCTION      0.02     3.28     0  03:03     0.00239       0.175       0.570
  WS02003104           JUNCTION      0.02     3.28     0  03:04     0.00302       0.177       0.473
  WS02003106           JUNCTION      0.05     3.32     0  03:05     0.00727       0.184       0.606
  WS02003110           JUNCTION      0.06     8.07     0  03:05     0.00906       0.467       0.140
  WS02003111           JUNCTION      0.02     7.85     0  03:06      0.0029       0.469       0.131
  WS02003115           JUNCTION      0.40     8.08     0  03:05      0.0228       0.492       0.128
  WS02003116           JUNCTION      0.08     8.20     0  03:06      0.0118       0.512       0.266
  WS02003118           JUNCTION      0.97     8.90     0  03:05      0.0441       0.555       0.328
  WS02003122           JUNCTION      0.07     9.03     0  03:06      0.0101       0.581       0.463
  WS02003123           JUNCTION      0.06     0.37     0  01:29      0.0093       0.019       2.050
  WS02003126           JUNCTION      0.03     0.07     0  03:01     0.00529      0.0054       0.657
  WS02003187           JUNCTION      0.06     8.99     0  03:07     0.00906       0.583       0.413
  WS02003188           JUNCTION      0.45     9.25     0  03:07      0.0217       0.603       0.684
  WS02003190           JUNCTION      0.06     9.28     0  03:08     0.00956       0.608       0.638
  WS02003193           JUNCTION      0.86     9.77     0  03:08      0.0346       0.639       0.632
  WS02003195           JUNCTION      0.03     9.78     0  03:09      0.0053        0.64       0.642
  WS02003196           JUNCTION      0.02     9.78     0  03:09     0.00301       0.639       0.690
  WS02003198           JUNCTION      1.07    10.46     0  03:09      0.0456        0.68       0.814
  WS02003200           JUNCTION      0.07    10.52     0  03:10      0.0107       0.685       0.345
  WS02003201           JUNCTION      0.01    10.52     0  03:11     0.00183       0.685       0.133
  WS02003202           JUNCTION      0.02    10.54     0  03:11      0.0031       0.687       0.253
  WS02003203           JUNCTION      0.05    11.25     0  03:14     0.00692       0.692       0.113
  WS02003215           JUNCTION      0.06     8.13     0  03:05     0.00945         0.5       0.108
  WS02004050           JUNCTION      0.72    99.26     0  03:15       0.119        6.72       0.735
  WS02004053           JUNCTION      0.00     0.00     0  00:00           0           0       0.000 ltr
  WS02004136           JUNCTION      0.44    32.92     0  01:20      0.0703        2.98       0.082
  WS02004139           JUNCTION      0.38    39.53     0  00:01      0.0619        3.04       0.552
  WS02004401           JUNCTION      0.05    33.22     0  02:49     0.00897        1.99       0.392
  WS02004402           JUNCTION      0.22    33.34     0  02:49      0.0335        2.01       0.364
  WS02004403           JUNCTION      0.23    33.44     0  02:49      0.0349        2.04       0.319
  WS02004404           JUNCTION      0.24    33.54     0  02:50      0.0365        2.07       0.301
  WS02004405           JUNCTION      1.15    34.31     0  02:50      0.0533        2.12       0.444
  WS02004406           JUNCTION      1.81    35.46     0  02:51       0.093         2.2       0.649
  WS02004407           JUNCTION      0.11    35.51     0  02:52      0.0171         2.2       0.577
  WS02004409           JUNCTION      1.37    36.55     0  02:52      0.0829        2.27       0.487
  WS02004410           JUNCTION      0.15    36.70     0  02:53      0.0226        2.28       0.485
  WS02004411           JUNCTION      0.25    36.94     0  02:53      0.0379        2.31       0.413
  WS02004412           JUNCTION      1.94    38.45     0  02:53      0.0888        2.39       0.318
  WS02004413           JUNCTION      0.11    38.54     0  02:54      0.0172         2.4       0.284
  WS02004997           JUNCTION      0.42    51.63     0  03:00      0.0693        5.22       0.766
  WS02005122           JUNCTION      1.18     1.18     0  03:01      0.0535      0.0535       0.181
  WS02005123           JUNCTION      0.06     1.23     0  03:01     0.00977      0.0631       0.239
  WS02005124           JUNCTION      0.04     1.26     0  03:01     0.00611      0.0691       0.349
  WS02005126           JUNCTION      1.05     2.26     0  03:01      0.0487       0.118       0.442
  WS02005127           JUNCTION      0.05     2.30     0  03:02     0.00848       0.126       0.383
  WS02005129           JUNCTION      1.22     3.42     0  03:01      0.0517       0.177       0.290
  WS02005131           JUNCTION      0.04     3.46     0  03:02     0.00682       0.183       0.385
  WS02005132           JUNCTION      0.05     3.49     0  03:02     0.00808        0.19       0.542
  WS02005133           JUNCTION      0.06     3.53     0  03:03        0.01       0.199       0.460
  WS02005135           JUNCTION      1.77     5.05     0  03:03      0.0782       0.277       0.274
  WS02005137           JUNCTION      0.04     5.09     0  03:03     0.00625       0.282       0.415
  WS02005138           JUNCTION      0.06     5.14     0  03:04      0.0101       0.291       0.510
  WS02005140           JUNCTION      0.06     5.19     0  03:04        0.01         0.3       0.295
  WS02005142           JUNCTION      1.96     6.84     0  03:03      0.0845       0.383       0.320
  WS02005144           JUNCTION      0.06     6.90     0  03:03     0.00927       0.391       0.314
  WS02005145           JUNCTION      0.04     6.93     0  03:04     0.00618       0.396       0.442
  WS02005147           JUNCTION      0.05     6.98     0  03:05     0.00749       0.402       0.277
  WS02005152           JUNCTION      0.06     7.03     0  03:05     0.00981       0.411       0.318
  WS02005154           JUNCTION      0.88     7.69     0  03:04      0.0405        0.45       0.180
  WS02005155           JUNCTION      0.06     7.74     0  03:05        0.01       0.459       0.225
  WS02005162           JUNCTION      0.08     3.17     0  03:04      0.0127       0.268       0.394
  WS02005163           JUNCTION      0.13     3.09     0  03:03        0.02       0.256       0.402
  WS02005164           JUNCTION      0.52     3.00     0  03:03      0.0247       0.237       0.403
  WS02005165           JUNCTION      0.11     2.58     0  03:03      0.0168       0.213       0.349
  WS02005166           JUNCTION      0.11     2.49     0  03:02      0.0167       0.197       0.373
  WS02005167           JUNCTION      0.50     2.41     0  03:02      0.0255       0.181       0.549
  WS02005170           JUNCTION      0.09     1.99     0  03:02       0.013       0.156       0.400
  WS02005171           JUNCTION      0.02     1.93     0  03:01     0.00326       0.144       0.427
  WS02005175           JUNCTION      0.76     1.92     0  03:01      0.0308       0.141       0.352
  WS02005176           JUNCTION      0.08     1.23     0  03:03      0.0123       0.111       0.492
  WS02005180           JUNCTION      0.11     1.17     0  03:03      0.0172      0.0994       0.690
  WS02005181           JUNCTION      0.13     1.10     0  03:02      0.0203      0.0827       0.528
  WS02005183           JUNCTION      0.03     1.00     0  03:01     0.00433      0.0626       0.318
  WS02005184           JUNCTION      0.09     0.98     0  03:01       0.013      0.0584       0.345
  WS02005185           JUNCTION      0.07     0.92     0  03:01      0.0111      0.0455       0.242
  WS02005186           JUNCTION      0.87     0.87     0  03:01      0.0345      0.0345       0.157
  WS02005188           JUNCTION      0.03     3.25     0  03:03     0.00497       0.272       0.269
  WS02005191           JUNCTION      0.06     3.56     0  03:02     0.00844       0.279       0.371
  WS02005192           JUNCTION      1.96     5.67     0  03:02      0.0926       0.371       0.337
  WS02005193           JUNCTION      0.09     5.97     0  03:01      0.0146       0.402       0.278
  WS02005196           JUNCTION      0.12     5.74     0  03:02       0.019       0.389       0.320
  WS02006109           JUNCTION      0.08    31.14     0  02:46      0.0135         1.8       0.457
  WS02006110           JUNCTION      0.08    31.17     0  02:47      0.0132         1.8       0.440
  WS02006111           JUNCTION      0.24    32.84     0  02:47      0.0366        1.93       0.146
  WS02006112           JUNCTION      0.18    33.04     0  02:47      0.0273        1.95       0.400
  WS02006113           JUNCTION      2.05    32.59     0  02:47       0.103         1.9       0.322
  WS02006115           JUNCTION      0.08    33.09     0  02:48      0.0134        1.96       0.401
  WS02006116           JUNCTION      0.24    33.21     0  02:48       0.036        1.98       0.402
  WS02006183           JUNCTION      0.00     0.00     0  00:00           0           0       0.000 ltr
  WS02006228           JUNCTION      1.93    31.15     0  02:46       0.118        1.79       0.324
  WS02006229           JUNCTION      0.13    30.04     0  02:46        0.02        1.67       0.273
  WS02006230           JUNCTION      0.07    30.08     0  02:45      0.0116        1.66       0.264
  WS02006231           JUNCTION      0.13    30.20     0  02:45      0.0205        1.65       0.149
  WS02006232           JUNCTION      1.41    30.20     0  02:45      0.0657        1.63       0.156
  WS02006234           JUNCTION      0.14    29.53     0  02:44      0.0216        1.57       0.160
  WS02006235           JUNCTION      0.14    31.36     0  02:44      0.0223        1.55       0.101
  WS02006238           JUNCTION      0.15    30.27     0  02:35      0.0235        1.53       0.154
  WS02006239           JUNCTION      0.11    20.18     0  03:02      0.0174        1.05       0.293
  WS02006242           JUNCTION      0.08    20.58     0  03:01      0.0129        1.03       0.323
  WS02006240           JUNCTION      0.06    20.29     0  03:01     0.00992        1.03       0.198
  WS02006243           JUNCTION      0.17    20.84     0  03:00      0.0269        1.01       0.184
  WS02006245           JUNCTION      0.07    20.77     0  03:00      0.0113       0.989       0.162
  WS02006247           JUNCTION      1.03    20.83     0  03:00      0.0616       0.979       0.166
  WS02006248           JUNCTION      0.12    19.96     0  03:00      0.0192       0.918       0.112
  WS02006249           JUNCTION      0.19    20.27     0  02:59      0.0286       0.901       0.209
  WS02006251           JUNCTION      0.56    20.67     0  02:59      0.0285       0.874       0.181
  WS02006253           JUNCTION      0.11    20.51     0  02:59      0.0173       0.846       0.070
  WS02618401           JUNCTION      0.00     0.00     0  00:00           0           0       0.000 ltr
  WS8802               JUNCTION      0.00     0.00     0  00:00           0           0       0.000 ltr
  WSA1649              JUNCTION      0.00     0.00     0  00:00           0           0       0.000 ltr
  WSF200               JUNCTION      0.14    39.82     0  02:55      0.0216        2.46       0.105
  XR-Inflow            JUNCTION     51.22    51.22     0  03:00        5.17        5.17       0.448
  WS02004114           JUNCTION      0.57    52.17     0  03:00      0.0916        5.27       0.445
  outfall-24           OUTFALL       0.00    52.13     0  03:00           0        2.31       0.000
  outfall-2            OUTFALL       0.00     0.00     0  00:00           0           0       0.000 ltr
  outfall-5            OUTFALL       0.00     0.00     0  00:00           0           0       0.000 ltr
  outfall-8            OUTFALL       0.00     0.00     0  00:00           0           0       0.000 ltr
  outfall-14           OUTFALL       0.00     0.00     0  00:00           0           0       0.000 ltr
  outfall-16           OUTFALL       0.00     0.00     0  00:00           0           0       0.000 ltr
  outfall-17           OUTFALL       0.00     0.00     0  00:00           0           0       0.000 ltr
  outfall-27           OUTFALL       0.00     0.00     0  00:00           0           0       0.000 ltr
  outfall-28           OUTFALL       0.00     0.00     0  00:00           0           0       0.000 ltr
  67                   OUTFALL       0.00     0.00     0  00:00           0           0       0.000 ltr
  12                   OUTFALL       0.00    83.95     0  03:16           0        6.67       0.000
  XR-storage           STORAGE       0.00    52.17     0  03:00           0        5.25      -0.536
  CC-storage           STORAGE       6.90     6.90     0  03:01       0.523       0.523      -0.056
  JK-storage           STORAGE       6.58     6.58     0  03:01       0.424       0.424      -8.016
  
  
  **********************
  Node Surcharge Summary
  **********************
  
  Surcharging occurs when water rises above the top of the highest conduit.
  ---------------------------------------------------------------------
                                               Max. Height   Min. Depth
                                   Hours       Above Crown    Below Rim
  Node                 Type      Surcharged         Meters       Meters
  ---------------------------------------------------------------------
  WS01000070           JUNCTION        4.00          0.000        0.000
  WS01000323           JUNCTION        4.00          0.000        0.000
  WS01000533           JUNCTION        4.00          0.000        2.147
  WS01005172           JUNCTION        4.00          0.000        0.000
  WS01005181           JUNCTION        4.00          0.000        0.000
  WS01009841           JUNCTION        4.00          0.000        0.000
  WS02000078           JUNCTION        4.00          0.000        0.000
  WS02000112           JUNCTION        4.00          0.000        0.000
  WS02000136           JUNCTION        4.00          0.000        0.000
  WS02004053           JUNCTION        4.00          0.000        0.000
  WS02004997           JUNCTION        3.62          5.468        0.532
  WS02006183           JUNCTION        4.00          0.000        0.000
  WS02618401           JUNCTION        4.00          0.000        0.000
  WS8802               JUNCTION        4.00          0.000        4.942
  WSA1649              JUNCTION        4.00          0.000        0.000
  XR-Inflow            JUNCTION        3.56          5.338        0.312
  WS02004114           JUNCTION        3.63          5.413        1.102
  
  
  *********************
  Node Flooding Summary
  *********************
  
  No nodes were flooded.
  
  
  **********************
  Storage Volume Summary
  **********************
  
  --------------------------------------------------------------------------------------------------
                         Average     Avg  Evap Exfil       Maximum     Max    Time of Max    Maximum
                          Volume    Pcnt  Pcnt  Pcnt        Volume    Pcnt     Occurrence    Outflow
  Storage Unit           1000 m3    Full  Loss  Loss       1000 m3    Full    days hr:min        MLD
  --------------------------------------------------------------------------------------------------
  XR-storage               0.057      91     0     0         0.060      95       0  03:00      52.13
  CC-storage               0.020      12     0     0         0.095      60       0  03:59      17.28
  JK-storage               0.025      18     0     0         0.109      80       0  02:21      26.71
  
  
  ***********************
  Outfall Loading Summary
  ***********************
  
  ---------------------------------------------------------------------------------------------------------------------------------
                         Flow       Avg       Max       Total         Total         Total         Total         Total         Total
                         Freq      Flow      Flow      Volume           COD         NH3-N            TN            TP            SS
  Outfall Node           Pcnt       MLD       MLD    10^6 ltr            kg            kg            kg            kg            kg
  ---------------------------------------------------------------------------------------------------------------------------------
  outfall-24            90.05     25.79     52.13       2.311       282.887         0.000         0.000         0.000         0.000
  outfall-2              0.00      0.00      0.00       0.000         0.000         0.000         0.000         0.000         0.000
  outfall-5              0.00      0.00      0.00       0.000         0.000         0.000         0.000         0.000         0.000
  outfall-8              0.00      0.00      0.00       0.000         0.000         0.000         0.000         0.000         0.000
  outfall-14             0.00      0.00      0.00       0.000         0.000         0.000         0.000         0.000         0.000
  outfall-16             0.00      0.00      0.00       0.000         0.000         0.000         0.000         0.000         0.000
  outfall-17             0.00      0.00      0.00       0.000         0.000         0.000         0.000         0.000         0.000
  outfall-27             0.00      0.00      0.00       0.000         0.000         0.000         0.000         0.000         0.000
  outfall-28             0.00      0.00      0.00       0.000         0.000         0.000         0.000         0.000         0.000
  67                     0.00      0.00      0.00       0.000         0.000         0.000         0.000         0.000         0.000
  12                    99.99     41.97     83.95       6.672       804.036         0.000         0.000         0.000         0.000
  ---------------------------------------------------------------------------------------------------------------------------------
  System                17.28     67.75    104.13       8.983      1086.924         0.000         0.000         0.000         0.000
  
  
  ********************
  Link Flow Summary
  ********************
  
  -----------------------------------------------------------------------------
                                 Maximum  Time of Max   Maximum    Max/    Max/
                                  |Flow|   Occurrence   |Veloc|    Full    Full
  Link                 Type          MLD  days hr:min     m/sec    Flow   Depth
  -----------------------------------------------------------------------------
  WSL49                CONDUIT     83.25     0  03:15      1.84    1.04    0.51
  WSL50                CONDUIT     10.89     0  03:16      1.62    0.75    0.32
  WSL51                CONDUIT     10.83     0  03:15      0.97    1.10    0.46
  WSL52                CONDUIT     10.81     0  03:15      0.85    0.50    0.52
  WSL53                CONDUIT     10.79     0  03:14      0.80    1.12    0.54
  WSL54                CONDUIT     10.79     0  03:14      0.73    0.86    0.58
  WSL55                CONDUIT     10.75     0  03:13      0.81    0.28    0.53
  WSL77                CONDUIT     10.76     0  03:13      0.91    0.56    0.49
  WSL78                CONDUIT     10.74     0  03:13      0.84    0.71    0.52
  WSL79                CONDUIT     10.72     0  03:16      0.88    0.37    0.50
  WSL80                CONDUIT     10.80     0  03:15      1.17    0.25    0.40
  WSL81                CONDUIT     11.01     0  03:15      1.28    0.81    0.38
  WSL82                CONDUIT     10.93     0  03:14      1.51    0.14    0.34
  WSL83                CONDUIT     10.96     0  03:14      2.26    0.14    0.25
  WSL84                CONDUIT      8.02     0  03:05      1.36    0.24    0.29
  WSL85                CONDUIT      0.43     0  01:30      0.40    0.01    0.50
  WSL86                CONDUIT      0.09     0  03:18      0.20    0.00    0.35
  WSL122               CONDUIT      9.26     0  03:09      0.63    0.93    0.58
  WSL123               CONDUIT     11.22     0  03:14      1.67    0.42    0.32
  WSL144               CONDUIT      8.95     0  03:08      0.64    0.35    0.56
  WSL145               CONDUIT      9.22     0  03:08      0.61    0.87    0.60
  WSL146               CONDUIT      9.75     0  03:09      0.69    0.71    0.56
  WSL147               CONDUIT      9.76     0  03:09      0.69    0.51    0.57
  WSL148               CONDUIT      9.78     0  03:10      0.69    0.93    0.56
  WSL149               CONDUIT     10.46     0  03:10      0.95    1.37    0.46
  WSL150               CONDUIT     10.52     0  03:11      1.29    0.35    0.37
  WSL151               CONDUIT     10.53     0  03:11      1.30    0.27    0.38
  WSL500               CONDUIT      7.03     0  03:05      1.34    0.23    0.27
  WSL502               CONDUIT      7.69     0  03:05      1.40    0.12    0.28
  WSL508               CONDUIT      3.22     0  03:03      0.69    0.12    0.26
  WSL509               CONDUIT      3.10     0  03:04      0.69    0.14    0.24
  WSL551               CONDUIT      3.42     0  03:02      0.97    0.08    0.20
  WSL553               CONDUIT      3.44     0  03:02      0.74    0.10    0.24
  WSL554               CONDUIT      3.47     0  03:03      0.66    0.18    0.27
  WSL555               CONDUIT      3.53     0  03:04      0.76    0.15    0.25
  WSL1465              CONDUIT     35.22     0  00:05      1.99    0.32    0.49
  WSL1472              CONDUIT     68.74     0  03:14      1.57    0.78    0.46
  WSL1475              CONDUIT     98.55     0  03:15      2.56    1.05    0.34
  WSL1476              CONDUIT     13.60     0  03:14      0.94    0.07    0.48
  WSL1477              CONDUIT      3.89     0  03:06      1.69    0.15    0.15
  WSL1490              CONDUIT     34.94     0  00:04      1.60    0.57    0.41
  WSL1491              CONDUIT     33.87     0  03:21      1.86    0.20    0.43
  WSL1492              CONDUIT     36.71     0  00:05      1.71    0.57    0.46
  WSL1506              CONDUIT      0.07     0  01:24      0.40    0.00    0.02
  WSL1507              CONDUIT      0.09     0  01:53      0.21    0.00    0.09
  WSL1508              CONDUIT      1.86     0  03:02      0.56    0.05    0.13
  WSL1512              CONDUIT      1.85     0  03:03      0.42    0.01    0.12
  WSL1513              CONDUIT      1.89     0  03:04      0.35    0.11    0.18
  WSL1515              CONDUIT     43.54     0  02:55      2.19    0.42    0.26
  WSL1516              CONDUIT      3.51     0  03:06      1.51    0.01    0.15
  WSL1518              CONDUIT      3.27     0  03:03      0.59    0.06    0.19
  WSL1519              CONDUIT      3.28     0  03:05      0.56    0.08    0.19
  WSL1521              CONDUIT      3.31     0  03:05      0.62    0.10    0.18
  WSL1525              CONDUIT      7.83     0  03:06      1.62    0.15    0.25
  WSL1526              CONDUIT      7.81     0  03:06      1.41    0.13    0.28
  WSL1529              CONDUIT      8.08     0  03:05      1.35    0.21    0.29
  WSL1530              CONDUIT      8.20     0  03:06      1.26    0.44    0.41
  WSL1532              CONDUIT      8.89     0  03:06      1.01    0.21    0.39
  WSL1543              CONDUIT      3.27     0  03:04      0.54    0.10    0.20
  WSL1545              CONDUIT      8.94     0  03:07      0.75    0.37    0.49
  WSL1641              CONDUIT      2.99     0  03:03      0.65    0.13    0.24
  WSL1642              CONDUIT      2.57     0  03:04      0.68    0.07    0.21
  WSL1643              CONDUIT      2.49     0  03:03      0.80    0.08    0.18
  WSL1644              CONDUIT      2.41     0  03:02      0.66    0.13    0.21
  WSL1646              CONDUIT      1.98     0  03:03      0.58    0.06    0.20
  WSL1647              CONDUIT      1.92     0  03:02      0.70    0.07    0.17
  WSL1652              CONDUIT      1.22     0  03:04      0.54    0.07    0.19
  WSL1764              CONDUIT      8.14     0  03:06      1.20    0.15    0.32
  WSL1931              CONDUIT      1.17     0  03:03      0.49    0.10    0.20
  WSL1932              CONDUIT      1.09     0  03:03      0.46    0.07    0.20
  WSL1934              CONDUIT      0.99     0  03:02      0.60    0.03    0.15
  WSL1935              CONDUIT      0.97     0  03:01      0.69    0.05    0.14
  WSL1961              CONDUIT     39.15     0  00:01      3.75    0.08    0.27
  WSL1964              CONDUIT     35.50     0  00:02      1.79    0.19    0.34
  WSL2010              CONDUIT     33.24     0  02:49      1.22    0.43    0.42
  WSL2011              CONDUIT     33.33     0  02:50      1.10    0.21    0.46
  WSL2012              CONDUIT     33.49     0  02:50      0.98    0.51    0.50
  WSL2013              CONDUIT     34.15     0  02:51      1.04    0.85    0.49
  WSL2014              CONDUIT     35.41     0  02:52      1.15    0.57    0.46
  WSL2015              CONDUIT     35.50     0  02:52      1.23    0.48    0.44
  WSL2016              CONDUIT     36.57     0  02:53      1.33    0.42    0.43
  WSL2017              CONDUIT     36.72     0  02:53      1.44    0.45    0.40
  WSL2018              CONDUIT     38.44     0  02:54      1.91    0.23    0.34
  WSL2019              CONDUIT     38.57     0  02:54      1.74    0.23    0.37
  WSL2028              CONDUIT     33.15     0  02:49      1.21    0.35    0.43
  WSL2029              CONDUIT     36.95     0  02:53      1.69    0.47    0.36
  WSL2031              CONDUIT      0.91     0  03:01      0.65    0.03    0.14
  WSL2032              CONDUIT      0.86     0  03:01      0.77    0.06    0.16
  WSL2034              CONDUIT      3.52     0  03:02      0.58    0.11    0.33
  WSL2037              CONDUIT      3.86     0  03:02      0.51    0.20    0.37
  WSL2038              CONDUIT      5.64     0  03:02      0.70    0.28    0.40
  WSL2039              CONDUIT      6.98     0  03:00      1.04    0.36    0.46
  WSL2041              CONDUIT      5.89     0  03:01      0.77    0.29    0.43
  WSL2124              CONDUIT      5.05     0  03:03      0.96    0.12    0.27
  WSL2126              CONDUIT      5.09     0  03:04      0.80    0.20    0.31
  WSL2127              CONDUIT      5.14     0  03:04      0.95    0.28    0.27
  WSL2128              CONDUIT      5.19     0  03:05      0.98    0.12    0.27
  WSL2130              CONDUIT      6.84     0  03:03      1.14    0.21    0.29
  WSL2146              CONDUIT      6.89     0  03:04      1.02    0.18    0.32
  WSL2147              CONDUIT      6.93     0  03:05      1.03    0.37    0.32
  WSL2148              CONDUIT      6.98     0  03:05      1.17    0.17    0.29
  WSL2294              CONDUIT     31.09     0  02:47      1.17    1.04    0.59
  WSL2295              CONDUIT     31.21     0  02:47      1.38    1.40    0.52
  WSL2296              CONDUIT     32.88     0  02:47      1.83    0.19    0.43
  WSL2297              CONDUIT     33.01     0  02:48      1.19    0.63    0.43
  WSL2298              CONDUIT     32.63     0  02:47      2.12    1.50    0.39
  WSL2301              CONDUIT     33.01     0  02:48      1.23    0.30    0.42
  WSL2302              CONDUIT     33.17     0  02:49      1.21    0.41    0.43
  WSL2357              CONDUIT      1.17     0  03:01      0.84    0.21    0.28
  WSL2358              CONDUIT      1.22     0  03:01      1.03    0.14    0.25
  WSL2359              CONDUIT      1.25     0  03:01      0.54    0.05    0.19
  WSL2361              CONDUIT      2.25     0  03:02      0.77    0.13    0.23
  WSL2362              CONDUIT      2.29     0  03:02      0.80    0.11    0.22
  WSL2441              CONDUIT     31.06     0  02:46      1.10    0.80    0.62
  WSL2442              CONDUIT     29.93     0  02:46      1.26    0.77    0.68
  WSL2443              CONDUIT     30.02     0  02:45      1.45    0.47    0.60
  WSL2444              CONDUIT     30.08     0  02:45      1.75    0.48    0.52
  WSL2446              CONDUIT     29.32     0  02:45      1.75    0.50    0.50
  WSL2447              CONDUIT     29.40     0  02:44      1.64    1.51    0.55
  WSL2448              CONDUIT     31.23     0  02:44      1.51    0.88    0.60
  WSL2449              CONDUIT     20.26     0  02:43      1.13    0.71    0.61
  WSL2450              CONDUIT     20.08     0  03:02      1.15    0.42    0.57
  WSL2451              CONDUIT     20.23     0  03:01      1.10    1.32    0.56
  WSL2452              CONDUIT     20.50     0  03:01      1.15    0.39    0.53
  WSL2454              CONDUIT     20.70     0  03:00      1.32    0.48    0.48
  WSL2478              CONDUIT     20.70     0  03:00      1.24    0.73    0.50
  WSL2479              CONDUIT     19.82     0  03:00      1.22    0.38    0.49
  WSL2480              CONDUIT     19.85     0  03:00      1.23    0.92    0.49
  WSL2482              CONDUIT     20.11     0  02:59      1.17    0.52    0.51
  WSL2484              CONDUIT     20.13     0  02:59      1.38    0.28    0.46
  WSL2493              CONDUIT     29.97     0  02:46      1.08    0.50    0.61
  WSL2867              CONDUIT     39.69     0  02:55      3.09    0.08    0.19
  WSL2868              CONDUIT     39.26     0  02:55      2.04    0.07    0.31
  5                    CONDUIT      1.91     0  03:01      0.76    0.09    0.21
  WSL348               CONDUIT     51.22     0  03:00      1.88    0.47    1.00
  WSL175               CONDUIT     51.63     0  03:00      2.17    1.74    1.00
  WSL1467              CONDUIT     68.40     0  03:14      1.55    0.36    0.47
  WSL1473              CONDUIT     68.94     0  03:15      1.63    0.28    0.47
  XRpipe               CONDUIT     52.17     0  03:00      8.80    0.13    1.00
  8                    CONDUIT      0.00     0  00:00      0.00    0.00    0.00
  19                   CONDUIT      0.00     0  00:00      0.00    0.00    0.00
  17                   CONDUIT      0.00     0  00:00      0.00    0.00    0.00
  4                    CONDUIT      0.00     0  00:00      0.00    0.00    0.00
  outletpipe           CONDUIT     52.13     0  03:00     12.95    0.17    0.29
  11                   CONDUIT      0.00     0  00:00      0.00    0.00    0.00
  20                   CONDUIT      0.00     0  00:00      0.00    0.00    0.00
  1                    CONDUIT      0.00     0  00:00      0.00    0.00    0.00
  28                   CONDUIT      0.00     0  00:00      0.00    0.00    0.00
  30                   CONDUIT      0.00     0  00:00      0.00    0.00    0.00
  2                    CONDUIT     83.95     0  03:16      3.57    0.30    0.38
  XR-Pump-1            PUMP         8.12     0  00:01              1.00
  XR-Pump-3            PUMP         8.12     0  00:01              1.00
  XR-Pump-2            PUMP         8.12     0  00:01              1.00
  XR-Pump-4            PUMP         8.12     0  00:01              1.00
  CC-Pump-1            PUMP         0.00     0  00:00              0.00
  CC-Pump-2            PUMP        17.28     0  01:40              1.00
  JK-Pump-1            PUMP         9.44     0  02:35              0.55
  JK-Pump-2            PUMP        17.28     0  02:30              1.00
  
  
  ***************************
  Flow Classification Summary
  ***************************
  
  -------------------------------------------------------------------------------------
                      Adjusted    ---------- Fraction of Time in Flow Class ---------- 
                       /Actual         Up    Down  Sub   Sup   Up    Down  Norm  Inlet 
  Conduit               Length    Dry  Dry   Dry   Crit  Crit  Crit  Crit  Ltd   Ctrl  
  -------------------------------------------------------------------------------------
  WSL49                   1.00   0.00  0.00  0.00  1.00  0.00  0.00  0.00  0.00  0.00
  WSL50                   1.00   0.00  0.00  0.00  0.07  0.93  0.00  0.00  0.00  0.00
  WSL51                   1.00   0.00  0.00  0.00  1.00  0.00  0.00  0.00  0.01  0.00
  WSL52                   1.00   0.00  0.00  0.00  1.00  0.00  0.00  0.00  0.09  0.00
  WSL53                   1.00   0.00  0.00  0.00  1.00  0.00  0.00  0.00  0.01  0.00
  WSL54                   1.00   0.00  0.00  0.00  1.00  0.00  0.00  0.00  0.00  0.00
  WSL55                   1.00   0.00  0.00  0.00  1.00  0.00  0.00  0.00  0.21  0.00
  WSL77                   1.00   0.00  0.00  0.00  1.00  0.00  0.00  0.00  0.00  0.00
  WSL78                   1.00   0.00  0.00  0.00  1.00  0.00  0.00  0.00  0.00  0.00
  WSL79                   1.00   0.00  0.00  0.00  1.00  0.00  0.00  0.00  0.40  0.00
  WSL80                   1.00   0.00  0.00  0.00  1.00  0.00  0.00  0.00  0.69  0.00
  WSL81                   1.00   0.00  0.00  0.00  1.00  0.00  0.00  0.00  0.00  0.00
  WSL82                   1.00   0.00  0.00  0.00  0.31  0.69  0.00  0.00  0.99  0.00
  WSL83                   1.00   0.00  0.00  0.00  0.00  1.00  0.00  0.00  0.73  0.00
  WSL84                   1.00   0.00  0.00  0.00  0.02  0.98  0.00  0.00  0.03  0.00
  WSL85                   1.00   0.00  0.00  0.00  1.00  0.00  0.00  0.00  0.12  0.00
  WSL86                   1.00   0.00  0.00  0.00  1.00  0.00  0.00  0.00  0.61  0.00
  WSL122                  1.00   0.00  0.00  0.00  1.00  0.00  0.00  0.00  0.00  0.00
  WSL123                  1.00   0.00  0.00  0.00  0.03  0.97  0.00  0.00  0.01  0.00
  WSL144                  1.00   0.00  0.00  0.00  1.00  0.00  0.00  0.00  0.29  0.00
  WSL145                  1.00   0.00  0.00  0.00  1.00  0.00  0.00  0.00  0.01  0.00
  WSL146                  1.00   0.00  0.00  0.00  1.00  0.00  0.00  0.00  0.03  0.00
  WSL147                  1.00   0.00  0.00  0.00  1.00  0.00  0.00  0.00  0.04  0.00
  WSL148                  1.00   0.00  0.00  0.00  1.00  0.00  0.00  0.00  0.00  0.00
  WSL149                  1.00   0.00  0.00  0.00  1.00  0.00  0.00  0.00  0.01  0.00
  WSL150                  1.00   0.00  0.00  0.00  0.44  0.56  0.00  0.00  0.00  0.00
  WSL151                  1.00   0.00  0.00  0.00  0.77  0.23  0.00  0.00  0.13  0.00
  WSL500                  1.00   0.00  0.00  0.00  0.02  0.98  0.00  0.00  0.00  0.00
  WSL502                  1.00   0.00  0.00  0.00  0.01  0.99  0.00  0.00  1.00  0.00
  WSL508                  1.00   0.00  0.00  0.00  1.00  0.00  0.00  0.00  0.09  0.00
  WSL509                  1.00   0.00  0.00  0.00  1.00  0.00  0.00  0.00  0.00  0.00
  WSL551                  1.00   0.00  0.00  0.00  0.43  0.57  0.00  0.00  0.92  0.00
  WSL553                  1.00   0.00  0.00  0.00  1.00  0.00  0.00  0.00  1.00  0.00
  WSL554                  1.00   0.00  0.00  0.00  1.00  0.00  0.00  0.00  0.24  0.00
  WSL555                  1.00   0.00  0.00  0.00  1.00  0.00  0.00  0.00  0.00  0.00
  WSL1465                 1.00   0.00  0.00  0.00  1.00  0.00  0.00  0.00  0.15  0.00
  WSL1472                 1.00   0.00  0.00  0.00  1.00  0.00  0.00  0.00  0.00  0.00
  WSL1475                 1.00   0.00  0.00  0.00  0.08  0.92  0.00  0.00  0.00  0.00
  WSL1476                 1.00   0.00  0.00  0.00  1.00  0.00  0.00  0.00  1.00  0.00
  WSL1477                 1.00   0.00  0.00  0.00  0.00  1.00  0.00  0.00  0.17  0.00
  WSL1490                 1.00   0.00  0.00  0.00  1.00  0.00  0.00  0.00  0.01  0.00
  WSL1491                 1.00   0.00  0.00  0.00  1.00  0.00  0.00  0.00  0.24  0.00
  WSL1492                 1.00   0.00  0.00  0.00  1.00  0.00  0.00  0.00  0.03  0.00
  WSL1506                 1.00   0.00  0.00  0.00  1.00  0.00  0.00  0.00  0.99  0.00
  WSL1507                 1.00   0.00  0.00  0.00  1.00  0.00  0.00  0.00  1.00  0.00
  WSL1508                 1.00   0.00  0.00  0.00  1.00  0.00  0.00  0.00  0.00  0.00
  WSL1512                 1.00   0.00  0.00  0.00  1.00  0.00  0.00  0.00  1.00  0.00
  WSL1513                 1.00   0.00  0.00  0.00  1.00  0.00  0.00  0.00  0.00  0.00
  WSL1515                 1.00   0.00  0.00  0.00  0.03  0.97  0.00  0.00  0.01  0.00
  WSL1516                 1.00   0.00  0.00  0.00  0.00  1.00  0.00  0.00  1.00  0.00
  WSL1518                 1.00   0.00  0.00  0.00  1.00  0.00  0.00  0.00  0.94  0.00
  WSL1519                 1.00   0.00  0.00  0.00  1.00  0.00  0.00  0.00  0.42  0.00
  WSL1521                 1.00   0.00  0.00  0.00  1.00  0.00  0.00  0.00  0.02  0.00
  WSL1525                 1.00   0.00  0.00  0.00  0.00  1.00  0.00  0.00  0.11  0.00
  WSL1526                 1.00   0.00  0.00  0.00  0.01  0.99  0.00  0.00  0.84  0.00
  WSL1529                 1.00   0.00  0.00  0.00  0.01  0.99  0.00  0.00  0.93  0.00
  WSL1530                 1.00   0.00  0.00  0.00  0.44  0.56  0.00  0.00  0.00  0.00
  WSL1532                 1.00   0.00  0.00  0.00  1.00  0.00  0.00  0.00  1.00  0.00
  WSL1543                 1.00   0.00  0.00  0.00  1.00  0.00  0.00  0.00  0.02  0.00
  WSL1545                 1.00   0.00  0.00  0.00  1.00  0.00  0.00  0.00  0.06  0.00
  WSL1641                 1.00   0.00  0.00  0.00  1.00  0.00  0.00  0.00  0.47  0.00
  WSL1642                 1.00   0.00  0.00  0.00  1.00  0.00  0.00  0.00  0.98  0.00
  WSL1643                 1.00   0.00  0.00  0.00  1.00  0.00  0.00  0.00  0.67  0.00
  WSL1644                 1.00   0.00  0.00  0.00  1.00  0.00  0.00  0.00  0.02  0.00
  WSL1646                 1.00   0.00  0.00  0.00  1.00  0.00  0.00  0.00  0.99  0.00
  WSL1647                 1.00   0.00  0.00  0.00  1.00  0.00  0.00  0.00  0.02  0.00
  WSL1652                 1.00   0.00  0.00  0.00  1.00  0.00  0.00  0.00  0.38  0.00
  WSL1764                 1.00   0.00  0.00  0.00  0.32  0.68  0.00  0.00  0.46  0.00
  WSL1931                 1.00   0.00  0.00  0.00  1.00  0.00  0.00  0.00  0.00  0.00
  WSL1932                 1.00   0.00  0.00  0.00  1.00  0.00  0.00  0.00  0.99  0.00
  WSL1934                 1.00   0.00  0.00  0.00  1.00  0.00  0.00  0.00  1.00  0.00
  WSL1935                 1.00   0.00  0.00  0.00  0.98  0.02  0.00  0.00  0.00  0.00
  WSL1961                 1.00   0.00  0.00  0.00  0.46  0.54  0.00  0.00  0.98  0.00
  WSL1964                 1.00   0.00  0.00  0.00  1.00  0.00  0.00  0.00  0.36  0.00
  WSL2010                 1.00   0.00  0.00  0.00  1.00  0.00  0.00  0.00  0.00  0.00
  WSL2011                 1.00   0.00  0.00  0.00  1.00  0.00  0.00  0.00  0.13  0.00
  WSL2012                 1.00   0.00  0.00  0.00  1.00  0.00  0.00  0.00  0.00  0.00
  WSL2013                 1.00   0.00  0.00  0.00  1.00  0.00  0.00  0.00  0.00  0.00
  WSL2014                 1.00   0.00  0.00  0.00  1.00  0.00  0.00  0.00  0.00  0.00
  WSL2015                 1.00   0.00  0.00  0.00  1.00  0.00  0.00  0.00  0.02  0.00
  WSL2016                 1.00   0.00  0.00  0.00  1.00  0.00  0.00  0.00  0.05  0.00
  WSL2017                 1.00   0.00  0.00  0.00  1.00  0.00  0.00  0.00  0.04  0.00
  WSL2018                 1.00   0.00  0.00  0.00  0.01  0.99  0.00  0.00  0.26  0.00
  WSL2019                 1.00   0.00  0.00  0.00  0.08  0.92  0.00  0.00  0.11  0.00
  WSL2028                 1.00   0.00  0.00  0.00  1.00  0.00  0.00  0.00  0.07  0.00
  WSL2029                 1.00   0.00  0.00  0.00  0.37  0.63  0.00  0.00  0.00  0.00
  WSL2031                 1.00   0.00  0.00  0.00  1.00  0.00  0.00  0.00  1.00  0.00
  WSL2032                 1.00   0.00  0.00  0.00  0.46  0.54  0.00  0.00  0.78  0.00
  WSL2034                 1.00   0.00  0.00  0.00  1.00  0.00  0.00  0.00  0.07  0.00
  WSL2037                 1.00   0.00  0.00  0.00  1.00  0.00  0.00  0.00  0.03  0.00
  WSL2038                 1.00   0.00  0.00  0.00  1.00  0.00  0.00  0.00  0.03  0.00
  WSL2039                 1.00   0.00  0.00  0.00  0.83  0.17  0.00  0.00  0.01  0.00
  WSL2041                 1.00   0.00  0.00  0.00  1.00  0.00  0.00  0.00  0.05  0.00
  WSL2124                 1.00   0.00  0.00  0.00  1.00  0.00  0.00  0.00  0.95  0.00
  WSL2126                 1.00   0.00  0.00  0.00  1.00  0.00  0.00  0.00  0.88  0.00
  WSL2127                 1.00   0.00  0.00  0.00  1.00  0.00  0.00  0.00  0.00  0.00
  WSL2128                 1.00   0.00  0.00  0.00  1.00  0.00  0.00  0.00  0.99  0.00
  WSL2130                 1.00   0.00  0.00  0.00  0.61  0.39  0.00  0.00  0.01  0.00
  WSL2146                 1.00   0.00  0.00  0.00  1.00  0.00  0.00  0.00  0.95  0.00
  WSL2147                 1.00   0.00  0.00  0.00  1.00  0.00  0.00  0.00  0.01  0.00
  WSL2148                 1.00   0.00  0.00  0.00  0.57  0.43  0.00  0.00  0.63  0.00
  WSL2294                 1.00   0.00  0.00  0.00  1.00  0.00  0.00  0.00  0.00  0.00
  WSL2295                 1.00   0.00  0.00  0.00  1.00  0.00  0.00  0.00  0.00  0.00
[...]
  WSL2493                 1.00   0.00  0.00  0.00  1.00  0.00  0.00  0.00  0.05  0.00
  WSL2867                 1.00   0.00  0.00  0.00  0.00  1.00  0.00  0.00  0.26  0.00
  WSL2868                 1.00   0.00  0.00  0.00  0.43  0.57  0.00  0.00  0.97  0.00
  5                       1.00   0.00  0.00  0.00  1.00  0.00  0.00  0.00  0.91  0.00
  WSL348                  1.00   0.00  0.00  0.00  0.99  0.01  0.00  0.00  0.01  0.00
  WSL175                  1.00   0.00  0.00  0.00  0.98  0.02  0.00  0.00  0.00  0.00
  WSL1467                 1.00   0.00  0.00  0.00  1.00  0.00  0.00  0.00  0.25  0.00
  WSL1473                 1.00   0.00  0.00  0.00  1.00  0.00  0.00  0.00  0.08  0.00
  XRpipe                  1.00   0.00  0.00  0.00  0.98  0.02  0.00  0.00  0.01  0.00
  8                       1.00   1.00  0.00  0.00  0.00  0.00  0.00  0.00  0.00  0.00
  19                      1.00   1.00  0.00  0.00  0.00  0.00  0.00  0.00  0.00  0.00
  17                      1.00   1.00  0.00  0.00  0.00  0.00  0.00  0.00  0.00  0.00
  4                       1.00   1.00  0.00  0.00  0.00  0.00  0.00  0.00  0.00  0.00
  outletpipe              1.00   0.10  0.00  0.00  0.00  0.90  0.00  0.00  0.00  0.00
  11                      1.00   1.00  0.00  0.00  0.00  0.00  0.00  0.00  0.00  0.00
  20                      1.00   1.00  0.00  0.00  0.00  0.00  0.00  0.00  0.00  0.00
  1                       1.00   1.00  0.00  0.00  0.00  0.00  0.00  0.00  0.00  0.00
  28                      1.00   1.00  0.00  0.00  0.00  0.00  0.00  0.00  0.00  0.00
  30                      1.00   1.00  0.00  0.00  0.00  0.00  0.00  0.00  0.00  0.00
  2                       1.00   0.00  0.00  0.00  0.00  1.00  0.00  0.00  0.34  0.00
  
  
  *************************
  Conduit Surcharge Summary
  *************************
  
  ----------------------------------------------------------------------------
                                                           Hours        Hours 
                         --------- Hours Full --------   Above Full   Capacity
  Conduit                Both Ends  Upstream  Dnstream   Normal Flow   Limited
  ----------------------------------------------------------------------------
  WSL49                       0.01      0.01      0.01      0.07         0.01
  WSL51                       0.01      0.01      0.01      0.28         0.01
  WSL53                       0.01      0.01      0.01      0.31         0.01
  WSL149                      0.01      0.01      0.01      0.56         0.01
  WSL1475                     0.01      0.01      0.01      0.02         0.01
  WSL2294                     0.01      0.01      0.01      0.08         0.01
  WSL2295                     0.01      0.01      0.01      0.47         0.01
  WSL2298                     0.01      0.01      0.01      0.60         0.01
  WSL2447                     0.01      0.01      0.01      0.53         0.01
  WSL2451                     0.01      0.01      0.01      0.30         0.01
  WSL348                      3.56      3.56      3.62      0.01         0.01
  WSL175                      3.62      3.62      3.63      1.64         1.84
  XRpipe                      3.63      3.63      3.72      0.01         0.01
  
  
  ***************
  Pumping Summary
  ***************
  
  ---------------------------------------------------------------------------------------------------------
                                                  Min       Avg       Max     Total     Power    % Time Off
                        Percent   Number of      Flow      Flow      Flow    Volume     Usage    Pump Curve
  Pump                 Utilized   Start-Ups       MLD       MLD       MLD  10^6 ltr     Kw-hr    Low   High
  ---------------------------------------------------------------------------------------------------------
  XR-Pump-1               74.98           6      0.00      4.70      8.12     0.726      3.12    0.0    0.0
  XR-Pump-3               74.98           6      0.00      4.70      8.12     0.726      3.12    0.0    0.0
  XR-Pump-2               74.98           6      0.00      4.70      8.12     0.726      3.12    0.0    0.0
  XR-Pump-4               74.98           6      0.00      4.70      8.12     0.726      3.12    0.0    0.0
  CC-Pump-1                0.00           0      0.00      0.00      0.00     0.000      0.00    0.0    0.0
  CC-Pump-2               41.64           3      0.00      6.56     17.28     0.429      4.72    0.0    0.0
  JK-Pump-1                8.33           1      0.00      4.19      9.44     0.057      0.66    0.0    0.0
  JK-Pump-2               37.45           3      0.00      5.08     17.28     0.405      3.66    0.0    0.0
  
  
  ***************************
  Link Pollutant Load Summary
  ***************************
  
  ------------------------------------------------------------------------------------------
                                 COD         NH3-N            TN            TP            SS
  Link                            kg            kg            kg            kg            kg
  ------------------------------------------------------------------------------------------
  WSL49                      771.990         0.000         0.000         0.000         0.000
  WSL50                       87.049         0.000         0.000         0.000         0.000
  WSL51                       85.562         0.000         0.000         0.000         0.000
  WSL52                       85.369         0.000         0.000         0.000         0.000
  WSL53                       84.665         0.000         0.000         0.000         0.000
  WSL54                       84.653         0.000         0.000         0.000         0.000
  WSL55                       83.474         0.000         0.000         0.000         0.000
  WSL77                       83.179         0.000         0.000         0.000         0.000
  WSL78                       82.528         0.000         0.000         0.000         0.000
  WSL79                       81.526         0.000         0.000         0.000         0.000
  WSL80                       80.037         0.000         0.000         0.000         0.000
  WSL81                       78.312         0.000         0.000         0.000         0.000
  WSL82                       77.427         0.000         0.000         0.000         0.000
  WSL83                       77.190         0.000         0.000         0.000         0.000
  WSL84                       45.941         0.000         0.000         0.000         0.000
  WSL85                        3.525         0.000         0.000         0.000         0.000
  WSL86                        0.910         0.000         0.000         0.000         0.000
  WSL122                      67.407         0.000         0.000         0.000         0.000
  WSL123                      76.128         0.000         0.000         0.000         0.000
  WSL144                      62.182         0.000         0.000         0.000         0.000
  WSL145                      66.244         0.000         0.000         0.000         0.000
  WSL146                      69.258         0.000         0.000         0.000         0.000
  WSL147                      69.714         0.000         0.000         0.000         0.000
  WSL148                      69.726         0.000         0.000         0.000         0.000
  WSL149                      74.098         0.000         0.000         0.000         0.000
  WSL150                      75.579         0.000         0.000         0.000         0.000
  WSL151                      75.802         0.000         0.000         0.000         0.000
  WSL500                      41.107         0.000         0.000         0.000         0.000
  WSL502                      44.374         0.000         0.000         0.000         0.000
  WSL508                      35.118         0.000         0.000         0.000         0.000
  WSL509                      33.148         0.000         0.000         0.000         0.000
  WSL551                      17.661         0.000         0.000         0.000         0.000
  WSL553                      18.743         0.000         0.000         0.000         0.000
  WSL554                      19.987         0.000         0.000         0.000         0.000
  WSL555                      21.560         0.000         0.000         0.000         0.000
  WSL1465                    366.109         0.000         0.000         0.000         0.000
  WSL1472                    661.686         0.000         0.000         0.000         0.000
  WSL1475                    789.831         0.000         0.000         0.000         0.000
  WSL1476                    106.976         0.000         0.000         0.000         0.000
  WSL1477                     18.193         0.000         0.000         0.000         0.000
  WSL1490                    351.920         0.000         0.000         0.000         0.000
  WSL1491                    356.847         0.000         0.000         0.000         0.000
  WSL1492                    362.113         0.000         0.000         0.000         0.000
  WSL1506                      1.646         0.000         0.000         0.000         0.000
  WSL1507                      2.135         0.000         0.000         0.000         0.000
  WSL1508                      9.254         0.000         0.000         0.000         0.000
  WSL1512                      9.706         0.000         0.000         0.000         0.000
  WSL1513                     11.380         0.000         0.000         0.000         0.000
  WSL1515                    285.484         0.000         0.000         0.000         0.000
  WSL1516                     18.897         0.000         0.000         0.000         0.000
  WSL1518                     15.438         0.000         0.000         0.000         0.000
  WSL1519                     16.198         0.000         0.000         0.000         0.000
  WSL1521                     17.311         0.000         0.000         0.000         0.000
  WSL1525                     47.393         0.000         0.000         0.000         0.000
  WSL1526                     47.824         0.000         0.000         0.000         0.000
  WSL1529                     50.323         0.000         0.000         0.000         0.000
  WSL1530                     53.715         0.000         0.000         0.000         0.000
  WSL1532                     57.118         0.000         0.000         0.000         0.000
  WSL1543                     15.740         0.000         0.000         0.000         0.000
  WSL1545                     60.844         0.000         0.000         0.000         0.000
  WSL1641                     29.955         0.000         0.000         0.000         0.000
  WSL1642                     27.807         0.000         0.000         0.000         0.000
  WSL1643                     25.102         0.000         0.000         0.000         0.000
  WSL1644                     22.411         0.000         0.000         0.000         0.000
  WSL1646                     20.017         0.000         0.000         0.000         0.000
  WSL1647                     17.920         0.000         0.000         0.000         0.000
  WSL1652                     15.435         0.000         0.000         0.000         0.000
  WSL1764                     51.866         0.000         0.000         0.000         0.000
  WSL1931                     13.464         0.000         0.000         0.000         0.000
  WSL1932                     10.686         0.000         0.000         0.000         0.000
  WSL1934                      7.353         0.000         0.000         0.000         0.000
  WSL1935                      6.650         0.000         0.000         0.000         0.000
  WSL1961                    339.714         0.000         0.000         0.000         0.000
  WSL1964                    347.652         0.000         0.000         0.000         0.000
  WSL2010                    227.131         0.000         0.000         0.000         0.000
  WSL2011                    232.301         0.000         0.000         0.000         0.000
  WSL2012                    237.724         0.000         0.000         0.000         0.000
  WSL2013                    241.394         0.000         0.000         0.000         0.000
  WSL2014                    252.548         0.000         0.000         0.000         0.000
  WSL2015                    253.988         0.000         0.000         0.000         0.000
  WSL2016                    264.199         0.000         0.000         0.000         0.000
  WSL2017                    266.762         0.000         0.000         0.000         0.000
  WSL2018                    277.609         0.000         0.000         0.000         0.000
  WSL2019                    279.749         0.000         0.000         0.000         0.000
  WSL2028                    222.204         0.000         0.000         0.000         0.000
  WSL2029                    272.051         0.000         0.000         0.000         0.000
  WSL2031                      4.497         0.000         0.000         0.000         0.000
  WSL2032                      2.657         0.000         0.000         0.000         0.000
  WSL2034                     35.839         0.000         0.000         0.000         0.000
  WSL2037                     37.117         0.000         0.000         0.000         0.000
  WSL2038                     43.848         0.000         0.000         0.000         0.000
  WSL2039                     49.163         0.000         0.000         0.000         0.000
  WSL2041                     46.875         0.000         0.000         0.000         0.000
  WSL2124                     26.813         0.000         0.000         0.000         0.000
  WSL2126                     27.768         0.000         0.000         0.000         0.000
  WSL2127                     29.291         0.000         0.000         0.000         0.000
  WSL2128                     30.881         0.000         0.000         0.000         0.000
  WSL2130                     36.128         0.000         0.000         0.000         0.000
  WSL2146                     37.588         0.000         0.000         0.000         0.000
  WSL2147                     38.442         0.000         0.000         0.000         0.000
  WSL2148                     39.600         0.000         0.000         0.000         0.000
  WSL2294                    199.813         0.000         0.000         0.000         0.000
  WSL2295                    201.112         0.000         0.000         0.000         0.000
  WSL2296                    210.748         0.000         0.000         0.000         0.000
  WSL2297                    214.804         0.000         0.000         0.000         0.000
  WSL2298                    204.799         0.000         0.000         0.000         0.000
  WSL2301                    216.189         0.000         0.000         0.000         0.000
  WSL2302                    221.532         0.000         0.000         0.000         0.000
  WSL2357                      5.177         0.000         0.000         0.000         0.000
  WSL2358                      6.793         0.000         0.000         0.000         0.000
  WSL2359                      7.792         0.000         0.000         0.000         0.000
  WSL2361                     12.806         0.000         0.000         0.000         0.000
  WSL2362                     14.170         0.000         0.000         0.000         0.000
  WSL2441                    198.340         0.000         0.000         0.000         0.000
  WSL2442                    166.855         0.000         0.000         0.000         0.000
  WSL2443                    165.296         0.000         0.000         0.000         0.000
  WSL2444                    161.970         0.000         0.000         0.000         0.000
  WSL2446                    159.953         0.000         0.000         0.000         0.000
  WSL2447                    156.494         0.000         0.000         0.000         0.000
  WSL2448                    152.761         0.000         0.000         0.000         0.000
  WSL2449                    117.537         0.000         0.000         0.000         0.000
  WSL2450                    115.017         0.000         0.000         0.000         0.000
  WSL2451                    113.636         0.000         0.000         0.000         0.000
  WSL2452                    111.943         0.000         0.000         0.000         0.000
  WSL2454                    107.568         0.000         0.000         0.000         0.000
  WSL2478                    105.803         0.000         0.000         0.000         0.000
  WSL2479                    100.504         0.000         0.000         0.000         0.000
  WSL2480                     97.342         0.000         0.000         0.000         0.000
  WSL2482                     92.997         0.000         0.000         0.000         0.000
  WSL2484                     89.659         0.000         0.000         0.000         0.000
  WSL2493                    169.637         0.000         0.000         0.000         0.000
  WSL2867                    287.046         0.000         0.000         0.000         0.000
  WSL2868                    290.434         0.000         0.000         0.000         0.000
  5                           17.457         0.000         0.000         0.000         0.000
  WSL348                     636.386         0.000         0.000         0.000         0.000
  WSL175                     643.489         0.000         0.000         0.000         0.000
  WSL1467                    656.606         0.000         0.000         0.000         0.000
  WSL1473                    665.618         0.000         0.000         0.000         0.000
  XRpipe                     656.965         0.000         0.000         0.000         0.000
  8                            0.000         0.000         0.000         0.000         0.000
  19                           0.000         0.000         0.000         0.000         0.000
  17                           0.000         0.000         0.000         0.000         0.000
  4                            0.000         0.000         0.000         0.000         0.000
  outletpipe                 282.887         0.000         0.000         0.000         0.000
  11                           0.000         0.000         0.000         0.000         0.000
  20                           0.000         0.000         0.000         0.000         0.000
  1                            0.000         0.000         0.000         0.000         0.000
  28                           0.000         0.000         0.000         0.000         0.000
  30                           0.000         0.000         0.000         0.000         0.000
  2                          804.036         0.000         0.000         0.000         0.000
  XR-Pump-1                   82.254         0.000         0.000         0.000         0.000
  XR-Pump-3                   82.254         0.000         0.000         0.000         0.000
  XR-Pump-2                   82.254         0.000         0.000         0.000         0.000
  XR-Pump-4                   82.254         0.000         0.000         0.000         0.000
  CC-Pump-1                    0.000         0.000         0.000         0.000         0.000
  CC-Pump-2                   37.685         0.000         0.000         0.000         0.000
  JK-Pump-1                    1.794         0.000         0.000         0.000         0.000
  JK-Pump-2                   30.061         0.000         0.000         0.000         0.000
  

  Analysis begun on:  Mon Oct 29 01:05:52 2018
  Analysis ended on:  Mon Oct 29 01:05:55 2018
  Total elapsed time: 00:00:03