
  EPA STORM WATER MANAGEMENT MODEL - VERSION 5.1 (Build 5.2.0.dev1)
  --------------------------------------------------------------

  
  *********************************************************
  NOTE: The summary statistics displayed in this report are
  based on results found at every computational time step,  
  not just on results from each reporting time step.
  *********************************************************
  
  ****************
  Analysis Options
  ****************
  Flow Units ............... MLD
  Process Models:
    Rainfall/Runoff ........ YES
    RDII ................... NO
    Snowmelt ............... NO
    Groundwater ............ NO
    Flow Routing ........... YES
    Ponding Allowed ........ NO
    Water Quality .......... YES
  Infiltration Method ...... GREEN_AMPT
  Flow Routing Method ...... DYNWAVE
  Starting Date ............ 08/28/2015 08:00:00
  Ending Date .............. 08/28/2015 12:00:00
  Antecedent Dry Days ...... 4.0
  Report Time Step ......... 00:01:00
  Wet Time Step ............ 00:01:00
  Dry Time Step ............ 00:01:00
  Routing Time Step ........ 5.00 sec
  Variable Time Step ....... YES
  Maximum Trials ........... 8
  Number of Threads ........ 1
  Head Tolerance ........... 0.001500 m
  
  
  **************************        Volume         Depth
  Runoff Quantity Continuity     hectare-m            mm
  **************************     ---------       -------
  Total Precipitation ......         2.777         8.400
  Evaporation Loss .........         0.000         0.000
  Infiltration Loss ........         1.567         4.739
  Surface Runoff ...........         0.518         1.567
  Final Storage ............         0.693         2.097
  Continuity Error (%) .....        -0.040
  
  
  **************************           COD         NH3-N            TN            TP            SS
  Runoff Quality Continuity             kg            kg            kg            kg            kg
  **************************    ----------    ----------    ----------    ----------    ----------
  Initial Buildup ..........     15404.640         0.000         0.000         0.000         0.000
  Surface Buildup ..........       133.990         0.000         0.000         0.000         0.000
  Wet Deposition ...........         0.000         0.000         0.000         0.000         0.000
  Sweeping Removal .........         0.000         0.000         0.000         0.000         0.000
  Infiltration Loss ........        63.953         0.000         0.000         0.000         0.000
  BMP Removal ..............         0.000         0.000         0.000         0.000         0.000
  Surface Runoff ...........       351.714         0.000         0.000         0.000         0.000
  Remaining Buildup ........     15122.607         0.000         0.000         0.000         0.000
  Continuity Error (%) .....         0.002         0.000         0.000         0.000         0.000
  
  
  **************************        Volume        Volume
  Flow Routing Continuity        hectare-m      10^6 ltr
  **************************     ---------     ---------
  Dry Weather Inflow .......         0.000         0.000
  Wet Weather Inflow .......         0.517         5.167
  Groundwater Inflow .......         0.000         0.000
  RDII Inflow ..............         0.000         0.000
  External Inflow ..........         0.621         6.206
  External Outflow .........         1.079        10.786
  Flooding Loss ............         0.000         0.000
  Evaporation Loss .........         0.000         0.000
  Exfiltration Loss ........         0.000         0.000
  Initial Stored Volume ....         0.000         0.000
  Final Stored Volume ......         0.081         0.808
  Continuity Error (%) .....        -1.936
  
  
  **************************           COD         NH3-N            TN            TP            SS
  Quality Routing Continuity            kg            kg            kg            kg            kg
  **************************    ----------    ----------    ----------    ----------    ----------
  Dry Weather Inflow .......         0.000         0.000         0.000         0.000         0.000
  Wet Weather Inflow .......       350.982         0.000         0.000         0.000         0.000
  Groundwater Inflow .......         0.000         0.000         0.000         0.000         0.000
  RDII Inflow ..............         0.000         0.000         0.000         0.000         0.000
  External Inflow ..........      1036.429         0.000         0.000         0.000         0.000
  External Outflow .........      1251.372         0.000         0.000         0.000         0.000
  Flooding Loss ............         0.000         0.000         0.000         0.000         0.000
  Exfiltration Loss ........         0.000         0.000         0.000         0.000         0.000
  Mass Reacted .............         0.000         0.000         0.000         0.000         0.000
  Initial Stored Mass ......         0.000         0.000         0.000         0.000         0.000
  Final Stored Mass ........        74.391         0.000         0.000         0.000         0.000
  Continuity Error (%) .....         4.443         0.000         0.000         0.000         0.000
  
  
  *************************
  Highest Continuity Errors
  *************************
  Node WS02003123 (2.31%)
  Node WS02003099 (1.35%)
  Node WS02003094 (1.12%)
  
  
  ***************************
  Time-Step Critical Elements
  ***************************
  Link outletpipe (92.79%)
  Link WSL2448 (4.88%)
  Link XRpipe (1.27%)
  
  
  ********************************
  Highest Flow Instability Indexes
  ********************************
  Link WSL1477 (31)
  Link WSL1516 (27)
  Link WSL84 (8)
  Link WSL1515 (5)
  Link WSL2867 (4)
  
  
  *************************
  Routing Time Step Summary
  *************************
  Minimum Time Step           :     0.12 sec
  Average Time Step           :     0.71 sec
  Maximum Time Step           :     5.00 sec
  Percent in Steady State     :    -0.00
  Average Iterations per Step :     2.13
  Percent Not Converging      :     1.96
  
  
  ***************************
  Subcatchment Runoff Summary
  ***************************
  
  --------------------------------------------------------------------------------------------------------
                            Total      Total      Total      Total      Total       Total     Peak  Runoff
                           Precip      Runon       Evap      Infil     Runoff      Runoff   Runoff   Coeff
  Subcatchment                 mm         mm         mm         mm         mm    10^6 ltr      MLD
  --------------------------------------------------------------------------------------------------------
  1                          8.40       5.90       0.00       6.63       4.55        0.06     1.01   0.318
  2                          8.40       0.00       0.00       5.61       2.08        0.07     1.30   0.248
  3                          8.40       0.00       0.00       5.61       2.02        0.10     1.89   0.240
  4                          8.40       0.00       0.00       5.60       2.12        0.06     1.05   0.252
  5                          8.40       5.21       0.00       6.59       4.15        0.07     1.30   0.305
  6                          8.40       0.00       0.00       5.61       2.02        0.10     1.84   0.241
  7                          8.40       0.00       0.00       3.61       1.73        2.76    45.05   0.206
  8                          8.40       0.00       0.00       5.61       2.05        0.09     1.60   0.244
  9                          8.40       2.01       0.00       6.03       2.69        0.10     1.86   0.258
  10                         8.40       3.35       0.00       6.21       3.30        0.06     1.13   0.281
  11                         8.40       0.00       0.00       5.60       2.16        0.04     0.80   0.257
  13                         8.40      30.46       0.00       8.29      22.63        0.04     0.62   0.582
  14                         8.40      31.88       0.00       8.82      24.48        0.05     0.89   0.608
  16                         8.40       5.36       0.00       6.27       4.29        0.03     0.51   0.312
  17                         8.40       0.00       0.00       5.61       2.07        0.08     1.40   0.246
  18                         8.40       0.00       0.00       5.61       2.04        0.09     1.63   0.243
  19                         8.40       0.00       0.00       5.60       2.13        0.05     1.00   0.253
  20                         8.40       1.92       0.00       6.02       2.73        0.08     1.42   0.265
  21                         8.40       5.03       0.00       6.53       4.09        0.06     1.15   0.305
  22                         8.40       3.88       0.00       6.39       3.61        0.06     1.19   0.294
  23                         8.40       0.00       0.00       5.58       2.32        0.02     0.32   0.276
  24                         8.40       0.00       0.00       5.60       2.15        0.05     0.88   0.256
  25                         8.40       0.00       0.00       5.59       2.24        0.03     0.49   0.267
  26                         8.40       0.00       0.00       5.60       2.16        0.04     0.81   0.257
  27                         8.40       0.00       0.00       5.60       2.16        0.04     0.79   0.258
  28                         8.40       5.51       0.00       6.62       4.00        0.11     1.90   0.288
  29                         8.40       2.22       0.00       6.01       2.82        0.07     1.25   0.266
  30                         8.40       7.91       0.00       6.98       5.78        0.05     0.99   0.354
  31                         8.40       0.00       0.00       5.61       2.07        0.07     1.36   0.247
  32                         8.40       0.00       0.00       5.61       2.02        0.10     1.90   0.240
  33                         8.40       0.00       0.00       5.58       2.28        0.02     0.38   0.272
  34                         8.40       4.38       0.00       6.48       3.74        0.08     1.43   0.292
  35                         8.40       0.00       0.00       5.61       2.10        0.06     1.18   0.250
  36                         8.40       3.82       0.00       6.39       3.14        0.19     3.34   0.257
  37                         8.40       0.00       0.00       5.61       2.04        0.09     1.69   0.243
  38                         8.40       0.00       0.00       5.61       2.10        0.06     1.14   0.250
  39                         8.40       0.00       0.00       5.61       2.08        0.07     1.31   0.248
  40                         8.40       1.07       0.00       5.85       2.39        0.09     1.72   0.252
  41                         8.40       0.00       0.00       5.60       2.16        0.04     0.79   0.258
  42                         8.40       0.00       0.00       5.60       2.14        0.05     0.91   0.255
  43                         8.40       0.00       0.00       5.55       2.43        0.01     0.18   0.289
  44                         8.40      52.27       0.00      10.36      38.16        0.14     2.47   0.629
  45                         8.40       0.00       0.00       5.59       2.26        0.02     0.45   0.269
  46                         8.40       3.11       0.00       6.24       3.23        0.07     1.28   0.281
  47                         8.40       0.00       0.00       5.59       2.25        0.02     0.48   0.267
  48                         8.40       1.58       0.00       5.94       2.75        0.04     0.82   0.276
  49                         8.40       0.00       0.00       5.60       2.15        0.05     0.87   0.256
  50                         8.40       2.61       0.00       6.14       3.10        0.05     1.03   0.282
  51                         8.40       2.16       0.00       6.06       2.89        0.06     1.15   0.273
  52                         8.40       0.00       0.00       5.60       2.15        0.05     0.87   0.256
  53                         8.40       1.08       0.00       5.84       2.55        0.04     0.85   0.269
  54                         8.40       0.00       0.00       5.58       2.29        0.02     0.37   0.273
  55                         8.40       2.31       0.00       6.06       3.22        0.03     0.52   0.301
  56                         8.40       3.44       0.00       6.29       3.34        0.07     1.32   0.282
  57                         8.40       0.00       0.00       5.61       2.02        0.10     1.86   0.241
  58                         8.40       0.00       0.00       5.59       2.26        0.02     0.45   0.269
  59                         8.40       0.00       0.00       5.58       2.29        0.02     0.37   0.272
  60                         8.40       5.15       0.00       6.52       4.78        0.02     0.48   0.353
  61                         8.40       0.00       0.00       5.62       1.79        0.32     5.81   0.213
  62                         8.40       0.00       0.00       5.63       1.78        0.34     6.09   0.212
  63                         8.40       0.00       0.00       5.58       2.27        0.02     0.42   0.270
  64                         8.40       0.00       0.00       5.59       2.23        0.03     0.51   0.266
  65                         8.40       0.00       0.00       5.60       2.18        0.04     0.71   0.260
  
  
  ****************************
  Subcatchment Washoff Summary
  ****************************
  
  ------------------------------------------------------------------------------------------
                                 COD         NH3-N            TN            TP            SS
  Subcatchment                    kg            kg            kg            kg            kg
  ------------------------------------------------------------------------------------------
  1                            2.691         0.000         0.000         0.000         0.000
  2                            0.000         0.000         0.000         0.000         0.000
  3                            0.000         0.000         0.000         0.000         0.000
  4                            3.683         0.000         0.000         0.000         0.000
  5                            9.825         0.000         0.000         0.000         0.000
  6                            6.242         0.000         0.000         0.000         0.000
  7                          156.051         0.000         0.000         0.000         0.000
  8                            5.485         0.000         0.000         0.000         0.000
  9                            9.363         0.000         0.000         0.000         0.000
  10                           8.084         0.000         0.000         0.000         0.000
  11                           2.857         0.000         0.000         0.000         0.000
  13                          16.214         0.000         0.000         0.000         0.000
  14                          14.068         0.000         0.000         0.000         0.000
  16                           8.269         0.000         0.000         0.000         0.000
  17                           4.851         0.000         0.000         0.000         0.000
  18                           5.595         0.000         0.000         0.000         0.000
  19                           3.528         0.000         0.000         0.000         0.000
  20                           7.140         0.000         0.000         0.000         0.000
  21                           9.164         0.000         0.000         0.000         0.000
  22                           7.937         0.000         0.000         0.000         0.000
  23                           1.164         0.000         0.000         0.000         0.000
  24                           3.116         0.000         0.000         0.000         0.000
  25                           1.773         0.000         0.000         0.000         0.000
  26                           2.882         0.000         0.000         0.000         0.000
  27                           2.820         0.000         0.000         0.000         0.000
  28                          16.531         0.000         0.000         0.000         0.000
  29                           7.921         0.000         0.000         0.000         0.000
  30                           9.782         0.000         0.000         0.000         0.000
  31                           4.715         0.000         0.000         0.000         0.000
  32                           6.434         0.000         0.000         0.000         0.000
  33                           1.404         0.000         0.000         0.000         0.000
  34                           9.934         0.000         0.000         0.000         0.000
  35                           4.118         0.000         0.000         0.000         0.000
  36                          21.857         0.000         0.000         0.000         0.000
  37                           5.769         0.000         0.000         0.000         0.000
  38                           4.002         0.000         0.000         0.000         0.000
  39                           4.556         0.000         0.000         0.000         0.000
  40                           7.446         0.000         0.000         0.000         0.000
  41                           2.807         0.000         0.000         0.000         0.000
  42                           3.226         0.000         0.000         0.000         0.000
  43                           0.659         0.000         0.000         0.000         0.000
  44                          32.080         0.000         0.000         0.000         0.000
  45                           1.624         0.000         0.000         0.000         0.000
  46                           8.009         0.000         0.000         0.000         0.000
  47                           1.733         0.000         0.000         0.000         0.000
  48                           4.033         0.000         0.000         0.000         0.000
  49                           3.067         0.000         0.000         0.000         0.000
  50                           5.830         0.000         0.000         0.000         0.000
  51                           6.082         0.000         0.000         0.000         0.000
  52                           3.067         0.000         0.000         0.000         0.000
  53                           3.803         0.000         0.000         0.000         0.000
  54                           1.348         0.000         0.000         0.000         0.000
  55                           2.910         0.000         0.000         0.000         0.000
  56                           8.780         0.000         0.000         0.000         0.000
  57                           6.306         0.000         0.000         0.000         0.000
  58                           1.638         0.000         0.000         0.000         0.000
  59                           1.362         0.000         0.000         0.000         0.000
  60                           3.896         0.000         0.000         0.000         0.000
  61                          17.914         0.000         0.000         0.000         0.000
  62                          18.682         0.000         0.000         0.000         0.000
  63                           1.542         0.000         0.000         0.000         0.000
  64                           1.854         0.000         0.000         0.000         0.000
  65                           2.543         0.000         0.000         0.000         0.000
  ------------------------------------------------------------------------------------------
  System                     542.065         0.000         0.000         0.000         0.000
  
  
  ******************
  Node Depth Summary
  ******************
  
  ---------------------------------------------------------------------------------
                                 Average  Maximum  Maximum  Time of Max    Reported
                                   Depth    Depth      HGL   Occurrence   Max Depth
  Node                 Type       Meters   Meters   Meters  days hr:min      Meters
  ---------------------------------------------------------------------------------
  WS01000070           JUNCTION     0.00     0.00     0.00     0  00:00        0.00
  WS01000323           JUNCTION     0.00     0.00     0.00     0  00:00        0.00
  WS01000533           JUNCTION     0.00     0.00     6.86     0  00:00        0.00
  WS01005172           JUNCTION     0.00     0.00     0.00     0  00:00        0.00
  WS01005181           JUNCTION     0.00     0.00     0.00     0  00:00        0.00
  WS01009841           JUNCTION     0.00     0.00     0.00     0  00:00        0.00
  WS02000078           JUNCTION     0.00     0.00     0.00     0  00:00        0.00
  WS02000112           JUNCTION     0.00     0.00     0.00     0  00:00        0.00
  WS02000136           JUNCTION     0.00     0.00     0.00     0  00:00        0.00
  WS02001211           JUNCTION     0.25     0.44     5.28     0  03:31        0.44
  WS02001212           JUNCTION     0.20     0.38     5.18     0  03:32        0.38
  WS02001213           JUNCTION     0.29     0.48     5.18     0  03:31        0.48
  WS02003059           JUNCTION     0.28     0.46     5.11     0  03:33        0.46
  WS02003060           JUNCTION     0.36     0.55     5.10     0  03:32        0.54
  WS02003066           JUNCTION     0.17     0.29     5.59     0  03:19        0.28
  WS02003067           JUNCTION     0.28     0.47     5.79     0  03:10        0.44
  WS02003071           JUNCTION     0.42     0.60     5.00     0  03:33        0.60
  WS02003072           JUNCTION     0.34     0.52     4.89     0  03:33        0.52
  WS02003073           JUNCTION     0.44     0.62     4.86     0  03:34        0.61
  WS02003076           JUNCTION     0.40     0.58     4.81     0  03:34        0.56
  WS02003077           JUNCTION     0.11     0.15     5.16     0  03:10        0.15
  WS02003078           JUNCTION     0.03     0.05     6.95     0  03:04        0.05
  WS02003079           JUNCTION     0.09     0.14     7.05     0  03:04        0.14
  WS02003080           JUNCTION     0.19     0.26     5.29     0  03:10        0.26
  WS02003081           JUNCTION     0.24     0.33     5.37     0  03:09        0.33
  WS02003082           JUNCTION     0.23     0.32     5.40     0  03:10        0.32
  WS02003083           JUNCTION     0.26     0.36     5.45     0  03:10        0.36
  WS02003084           JUNCTION     0.26     0.37     5.47     0  03:11        0.37
  WS02003085           JUNCTION     0.20     0.31     5.48     0  03:09        0.30
  WS02003086           JUNCTION     0.22     0.32     5.52     0  03:11        0.32
  WS02003087           JUNCTION     0.24     0.34     5.56     0  03:10        0.34
  WS02003088           JUNCTION     0.20     0.30     5.59     0  03:10        0.30
  WS02003089           JUNCTION     0.15     0.23     5.69     0  03:10        0.23
  WS02003090           JUNCTION     0.19     0.27     5.74     0  03:10        0.27
  WS02003091           JUNCTION     0.11     0.17     5.97     0  03:09        0.16
  WS02003092           JUNCTION     0.01     0.01     7.65     0  01:24        0.01
  WS02003093           JUNCTION     0.02     0.02     7.36     0  01:53        0.02
  WS02003094           JUNCTION     0.09     0.13     7.35     0  03:01        0.13
  WS02003098           JUNCTION     0.05     0.08     7.25     0  03:02        0.08
  WS02003099           JUNCTION     0.11     0.16     7.20     0  03:03        0.16
  WS02003102           JUNCTION     0.09     0.14     7.17     0  03:01        0.14
  WS02003103           JUNCTION     0.11     0.17     7.14     0  03:02        0.17
  WS02003104           JUNCTION     0.10     0.16     7.12     0  03:03        0.16
  WS02003106           JUNCTION     0.11     0.16     7.09     0  03:03        0.16
  WS02003110           JUNCTION     0.11     0.16     7.41     0  03:04        0.16
  WS02003111           JUNCTION     0.10     0.15     7.24     0  03:04        0.15
  WS02003115           JUNCTION     0.13     0.19     7.09     0  03:04        0.19
  WS02003116           JUNCTION     0.15     0.23     6.94     0  03:04        0.23
  WS02003118           JUNCTION     0.13     0.19     6.81     0  03:03        0.19
  WS02003122           JUNCTION     0.19     0.30     6.67     0  03:05        0.30
  WS02003123           JUNCTION     0.12     0.23     6.67     0  03:05        0.23
  WS02003126           JUNCTION     0.06     0.15     6.67     0  03:05        0.15
  WS02003187           JUNCTION     0.21     0.33     6.66     0  03:05        0.33
  WS02003188           JUNCTION     0.26     0.38     6.64     0  03:05        0.38
  WS02003190           JUNCTION     0.26     0.37     6.62     0  03:06        0.37
  WS02003193           JUNCTION     0.25     0.36     6.60     0  03:05        0.36
  WS02003195           JUNCTION     0.24     0.35     6.57     0  03:06        0.35
  WS02003196           JUNCTION     0.26     0.36     6.54     0  03:06        0.36
  WS02003198           JUNCTION     0.25     0.35     6.52     0  03:06        0.35
  WS02003200           JUNCTION     0.16     0.24     6.40     0  03:05        0.24
  WS02003201           JUNCTION     0.16     0.23     6.37     0  03:08        0.23
  WS02003202           JUNCTION     0.17     0.25     6.31     0  03:10        0.25
  WS02003203           JUNCTION     0.11     0.16     6.16     0  03:08        0.16
  WS02003215           JUNCTION     0.11     0.17     7.03     0  03:03        0.17
  WS02004050           JUNCTION     0.27     0.38     4.60     0  03:34        0.38
  WS02004053           JUNCTION     0.00     0.00     0.00     0  00:00        0.00
  WS02004136           JUNCTION     0.09     0.21     6.94     0  00:01        0.18
  WS02004139           JUNCTION     0.19     0.37     5.33     0  02:36        0.37
  WS02004401           JUNCTION     0.30     0.52     6.52     0  03:22        0.51
  WS02004402           JUNCTION     0.30     0.53     6.49     0  03:22        0.53
  WS02004403           JUNCTION     0.29     0.52     6.45     0  03:23        0.51
  WS02004404           JUNCTION     0.37     0.60     6.45     0  03:23        0.60
  WS02004405           JUNCTION     0.37     0.60     6.44     0  03:23        0.59
  WS02004406           JUNCTION     0.35     0.56     6.39     0  03:23        0.56
  WS02004407           JUNCTION     0.33     0.53     6.33     0  03:24        0.53
  WS02004409           JUNCTION     0.32     0.51     6.28     0  03:24        0.51
  WS02004410           JUNCTION     0.31     0.49     6.21     0  03:24        0.48
  WS02004411           JUNCTION     0.29     0.45     6.13     0  03:24        0.45
  WS02004412           JUNCTION     0.24     0.39     6.03     0  03:25        0.39
  WS02004413           JUNCTION     0.25     0.40     5.87     0  03:25        0.40
  WS02004997           JUNCTION     5.96     6.37     7.98     0  02:00        6.33
  WS02005122           JUNCTION     0.06     0.09     9.61     0  03:01        0.09
  WS02005123           JUNCTION     0.05     0.08     9.54     0  03:01        0.08
  WS02005124           JUNCTION     0.05     0.07     9.34     0  03:01        0.07
  WS02005126           JUNCTION     0.08     0.12     9.22     0  03:01        0.12
  WS02005127           JUNCTION     0.07     0.11     9.14     0  03:01        0.11
  WS02005129           JUNCTION     0.07     0.12     9.05     0  03:01        0.12
  WS02005131           JUNCTION     0.08     0.13     8.89     0  03:01        0.13
  WS02005132           JUNCTION     0.11     0.17     8.81     0  03:02        0.17
  WS02005133           JUNCTION     0.10     0.16     8.77     0  03:02        0.16
  WS02005135           JUNCTION     0.09     0.15     8.71     0  03:01        0.15
  WS02005137           JUNCTION     0.12     0.19     8.61     0  03:02        0.19
  WS02005138           JUNCTION     0.13     0.19     8.54     0  03:02        0.19
  WS02005140           JUNCTION     0.10     0.14     8.46     0  03:03        0.14
  WS02005142           JUNCTION     0.12     0.19     8.35     0  03:01        0.19
  WS02005144           JUNCTION     0.12     0.18     8.23     0  03:02        0.18
  WS02005145           JUNCTION     0.15     0.22     8.12     0  03:02        0.22
  WS02005147           JUNCTION     0.11     0.17     8.04     0  03:03        0.17
  WS02005152           JUNCTION     0.13     0.19     7.91     0  03:03        0.19
  WS02005154           JUNCTION     0.09     0.14     7.78     0  03:03        0.14
  WS02005155           JUNCTION     0.13     0.20     7.51     0  03:04        0.20
  WS02005162           JUNCTION     0.11     0.22     8.22     0  03:10        0.22
  WS02005163           JUNCTION     0.12     0.19     8.23     0  03:11        0.19
  WS02005164           JUNCTION     0.11     0.16     8.24     0  03:11        0.16
  WS02005165           JUNCTION     0.09     0.11     8.29     0  03:02        0.11
  WS02005166           JUNCTION     0.08     0.11     8.38     0  03:02        0.11
  WS02005167           JUNCTION     0.10     0.14     8.44     0  03:01        0.14
  WS02005170           JUNCTION     0.07     0.10     8.50     0  03:02        0.10
  WS02005171           JUNCTION     0.08     0.11     8.58     0  03:01        0.11
  WS02005175           JUNCTION     0.07     0.10     8.67     0  03:01        0.10
  WS02005176           JUNCTION     0.07     0.09     8.71     0  03:03        0.09
  WS02005180           JUNCTION     0.08     0.11     8.76     0  03:02        0.11
  WS02005181           JUNCTION     0.07     0.09     8.79     0  03:02        0.09
  WS02005183           JUNCTION     0.04     0.06     8.92     0  03:02        0.06
  WS02005184           JUNCTION     0.05     0.08     8.99     0  03:01        0.08
  WS02005185           JUNCTION     0.04     0.06     9.08     0  03:01        0.06
  WS02005186           JUNCTION     0.04     0.07     9.18     0  03:01        0.07
  WS02005188           JUNCTION     0.12     0.28     8.22     0  03:10        0.28
  WS02005191           JUNCTION     0.15     0.32     8.22     0  03:09        0.31
  WS02005192           JUNCTION     0.16     0.34     8.21     0  03:09        0.34
  WS02005193           JUNCTION     0.17     0.39     8.21     0  03:09        0.39
  WS02005196           JUNCTION     0.17     0.36     8.21     0  03:09        0.36
  WS02006109           JUNCTION     0.35     0.61     7.23     0  03:20        0.61
  WS02006110           JUNCTION     0.33     0.55     7.15     0  03:21        0.55
  WS02006111           JUNCTION     0.17     0.31     6.89     0  03:21        0.31
  WS02006112           JUNCTION     0.33     0.56     6.68     0  03:21        0.55
  WS02006113           JUNCTION     0.28     0.49     7.08     0  03:22        0.47
  WS02006115           JUNCTION     0.28     0.50     6.60     0  03:22        0.50
  WS02006116           JUNCTION     0.31     0.53     6.57     0  03:22        0.53
  WS02006183           JUNCTION     0.00     0.00     0.00     0  00:00        0.00
  WS02006228           JUNCTION     0.36     0.64     7.29     0  03:20        0.63
  WS02006229           JUNCTION     0.33     0.62     7.31     0  03:20        0.61
  WS02006230           JUNCTION     0.31     0.63     7.38     0  03:20        0.63
  WS02006231           JUNCTION     0.24     0.53     7.43     0  03:20        0.52
  WS02006232           JUNCTION     0.23     0.48     7.51     0  03:20        0.48
  WS02006234           JUNCTION     0.23     0.48     7.64     0  03:19        0.48
  WS02006235           JUNCTION     0.28     0.56     7.73     0  03:19        0.54
  WS02006238           JUNCTION     0.28     0.57     7.75     0  03:19        0.55
  WS02006239           JUNCTION     0.28     0.54     7.75     0  03:20        0.53
  WS02006242           JUNCTION     0.28     0.56     7.86     0  03:10        0.56
  WS02006240           JUNCTION     0.23     0.48     7.77     0  03:10        0.48
  WS02006243           JUNCTION     0.21     0.48     7.90     0  03:09        0.48
  WS02006245           JUNCTION     0.21     0.48     7.97     0  03:09        0.47
  WS02006247           JUNCTION     0.23     0.51     8.02     0  03:09        0.51
  WS02006248           JUNCTION     0.19     0.47     8.06     0  03:09        0.46
  WS02006249           JUNCTION     0.22     0.50     8.10     0  03:09        0.50
  WS02006251           JUNCTION     0.21     0.51     8.18     0  03:08        0.51
  WS02006253           JUNCTION     0.16     0.41     8.21     0  03:08        0.40
  WS02618401           JUNCTION     0.00     0.00     0.00     0  00:00        0.00
  WS8802               JUNCTION     0.00     0.00     4.38     0  00:00        0.00
  WSA1649              JUNCTION     0.00     0.00     0.00     0  00:00        0.00
  WSF200               JUNCTION     0.16     0.29     5.39     0  03:19        0.28
  XR-Inflow            JUNCTION     5.79     6.25     8.06     0  03:00        6.19
  WS02004114           JUNCTION     5.94     6.30     7.90     0  03:10        6.30
  outfall-24           OUTFALL      0.10     0.15     5.65     0  03:10        0.15
  outfall-2            OUTFALL      0.00     0.00     7.00     0  00:00        0.00
  outfall-5            OUTFALL      0.00     0.00     7.67     0  00:00        0.00
  outfall-8            OUTFALL      0.00     0.00     8.00     0  00:00        0.00
  outfall-14           OUTFALL      0.00     0.00     7.66     0  00:00        0.00
  outfall-16           OUTFALL      0.00     0.00     8.39     0  00:00        0.00
  outfall-17           OUTFALL      0.00     0.00     8.15     0  00:00        0.00
  outfall-27           OUTFALL      0.00     0.00     7.90     0  00:00        0.00
  outfall-28           OUTFALL      0.00     0.00     7.30     0  00:00        0.00
  67                   OUTFALL      0.00     0.00    10.20     0  00:00        0.00
  12                   OUTFALL      0.27     0.38     0.38     0  03:35        0.38
  XR-storage           STORAGE      7.01     7.38     7.88     0  03:10        7.38
  CC-storage           STORAGE      1.12     4.77     7.95     0  02:54        4.77
  JK-storage           STORAGE      1.03     4.39     7.39     0  02:53        4.39
  
  
  *******************
  Node Inflow Summary
  *******************
  
  -------------------------------------------------------------------------------------------------
                                  Maximum  Maximum                  Lateral       Total        Flow
                                  Lateral    Total  Time of Max      Inflow      Inflow     Balance
                                   Inflow   Inflow   Occurrence      Volume      Volume       Error
  Node                 Type           MLD      MLD  days hr:min    10^6 ltr    10^6 ltr     Percent
  -------------------------------------------------------------------------------------------------
  WS01000070           JUNCTION      0.00     0.00     0  00:00           0           0       0.000 ltr
  WS01000323           JUNCTION      0.00     0.00     0  00:00           0           0       0.000 ltr
  WS01000533           JUNCTION      0.00     0.00     0  00:00           0           0       0.000 ltr
  WS01005172           JUNCTION      0.00     0.00     0  00:00           0           0       0.000 ltr
  WS01005181           JUNCTION      0.00     0.00     0  00:00           0           0       0.000 ltr
  WS01009841           JUNCTION      0.00     0.00     0  00:00           0           0       0.000 ltr
  WS02000078           JUNCTION      0.00     0.00     0  00:00           0           0       0.000 ltr
  WS02000112           JUNCTION      0.00     0.00     0  00:00           0           0       0.000 ltr
  WS02000136           JUNCTION      0.00     0.00     0  00:00           0           0       0.000 ltr
  WS02001211           JUNCTION      0.25    35.75     0  00:02      0.0407        2.83       0.915
  WS02001212           JUNCTION      0.21    35.15     0  00:04      0.0346        2.84       0.518
  WS02001213           JUNCTION      0.30    34.10     0  01:18      0.0489        2.88       0.664
  WS02003059           JUNCTION      0.23    36.94     0  00:05      0.0378         2.9       0.792
  WS02003060           JUNCTION      0.16    76.07     0  03:31      0.0252        6.02       0.531
  WS02003066           JUNCTION      0.08    59.59     0  03:10      0.0122         3.1       0.092
  WS02003067           JUNCTION      0.26    51.10     0  03:25      0.0395        3.09       0.179
  WS02003071           JUNCTION      0.35    72.27     0  03:32      0.0538        6.04       0.578
  WS02003072           JUNCTION      0.24    72.11     0  03:33      0.0382        6.04       0.364
  WS02003073           JUNCTION      0.07    82.37     0  03:34     0.00978        7.17       0.327
  WS02003076           JUNCTION      0.72    83.90     0  03:34        0.12        7.27       0.297
  WS02003077           JUNCTION      0.04    15.50     0  03:11      0.0059        1.15       0.159
  WS02003078           JUNCTION      0.03     4.14     0  03:04     0.00419       0.242      -0.034
  WS02003079           JUNCTION      0.04     3.59     0  03:03     0.00561       0.238       0.281
  WS02003080           JUNCTION      0.08    12.07     0  03:10      0.0113       0.904       0.377
  WS02003081           JUNCTION      0.03    12.02     0  03:09     0.00406       0.897       0.502
  WS02003082           JUNCTION      0.05    12.03     0  03:08     0.00692       0.898       0.477
  WS02003083           JUNCTION      0.02    12.02     0  03:08      0.0027       0.895       0.489
  WS02003084           JUNCTION      0.06    12.03     0  03:08     0.00885       0.895       0.334
  WS02003085           JUNCTION      0.02    12.01     0  03:07     0.00307       0.889       0.251
  WS02003086           JUNCTION      0.04    12.04     0  03:07     0.00599       0.889       0.362
  WS02003087           JUNCTION      0.06    12.07     0  03:06     0.00824       0.886       0.404
  WS02003088           JUNCTION      0.07    12.17     0  03:10      0.0105       0.881       0.310
  WS02003089           JUNCTION      0.08    12.47     0  03:09      0.0113       0.872       0.197
  WS02003090           JUNCTION      0.04    12.39     0  03:09     0.00647       0.863       0.210
  WS02003091           JUNCTION      0.01    12.26     0  03:09     0.00171       0.857       0.085
  WS02003092           JUNCTION      0.07     0.07     0  01:00     0.00989     0.00989       0.393
  WS02003093           JUNCTION      0.02     0.09     0  01:24     0.00306      0.0129       1.000
  WS02003094           JUNCTION      1.91     1.99     0  03:01       0.111       0.124       1.137
  WS02003098           JUNCTION      0.02     1.97     0  03:01     0.00293       0.125       0.624
  WS02003099           JUNCTION      0.07     2.02     0  03:02      0.0109       0.135       1.367
  WS02003102           JUNCTION      1.62     3.56     0  03:01      0.0909       0.225       0.633
  WS02003103           JUNCTION      0.02     3.53     0  03:01     0.00239       0.226       0.476
  WS02003104           JUNCTION      0.02     3.54     0  03:02     0.00302       0.227       0.397
  WS02003106           JUNCTION      0.05     3.56     0  03:03     0.00727       0.234       0.507
  WS02003110           JUNCTION      0.06     8.52     0  03:03     0.00906       0.576       0.117
  WS02003111           JUNCTION      0.02     8.30     0  03:04      0.0029       0.578       0.110
  WS02003115           JUNCTION      0.38     8.57     0  03:04      0.0272       0.605       0.110
  WS02003116           JUNCTION      0.08     8.68     0  03:04      0.0118       0.625       0.229
  WS02003118           JUNCTION      0.93     9.48     0  03:02      0.0563        0.68       0.279
  WS02003122           JUNCTION      0.07     9.59     0  03:03      0.0101       0.705       0.407
  WS02003123           JUNCTION      0.06     0.36     0  01:20      0.0093      0.0175       2.367
  WS02003126           JUNCTION      0.03     0.04     0  01:51     0.00529      0.0053       0.658
  WS02003187           JUNCTION      0.06     9.59     0  03:05     0.00906       0.708       0.370
  WS02003188           JUNCTION      0.53    10.02     0  03:05      0.0329       0.739       0.597
  WS02003190           JUNCTION      0.06    10.06     0  03:05     0.00956       0.744       0.559
  WS02003193           JUNCTION      0.82    10.67     0  03:04      0.0456       0.785       0.552
  WS02003195           JUNCTION      0.03    10.69     0  03:05      0.0053       0.786       0.562
  WS02003196           JUNCTION      0.02    10.70     0  03:06     0.00301       0.785       0.598
  WS02003198           JUNCTION      1.15    11.62     0  03:05      0.0646       0.845       0.698
  WS02003200           JUNCTION      0.07    11.67     0  03:06      0.0107        0.85       0.303
  WS02003201           JUNCTION      0.01    11.73     0  03:05     0.00183       0.849       0.115
  WS02003202           JUNCTION      0.02    11.77     0  03:05      0.0031       0.851       0.223
  WS02003203           JUNCTION      0.05    12.71     0  03:08     0.00692       0.856       0.094
  WS02003215           JUNCTION      0.06     8.61     0  03:04     0.00945       0.614       0.094
  WS02004050           JUNCTION      0.72    99.01     0  03:34       0.119        7.37       0.629
  WS02004053           JUNCTION      0.00     0.00     0  00:00           0           0       0.000 ltr
  WS02004136           JUNCTION      0.44    32.92     0  01:10      0.0703        2.75       0.101
  WS02004139           JUNCTION      0.38    39.53     0  00:01      0.0619        2.81       0.605
  WS02004401           JUNCTION      0.05    47.91     0  03:22     0.00897        2.51       0.207
  WS02004402           JUNCTION      0.22    47.87     0  03:22      0.0335        2.54       0.184
  WS02004403           JUNCTION      0.23    47.87     0  03:22      0.0349        2.57       0.146
  WS02004404           JUNCTION      0.24    47.90     0  03:23      0.0365         2.6       0.156
  WS02004405           JUNCTION      1.12    48.14     0  03:23      0.0678        2.67       0.229
  WS02004406           JUNCTION      2.02    49.16     0  03:23       0.127        2.79       0.325
  WS02004407           JUNCTION      0.11    48.96     0  03:23      0.0171        2.79       0.289
  WS02004409           JUNCTION      1.48    49.60     0  03:24       0.105        2.89       0.246
  WS02004410           JUNCTION      0.15    49.63     0  03:24      0.0226        2.91       0.254
  WS02004411           JUNCTION      0.25    49.88     0  03:24      0.0379        2.94       0.219
  WS02004412           JUNCTION      1.92    50.63     0  03:25       0.114        3.04       0.168
  WS02004413           JUNCTION      0.11    50.82     0  03:25      0.0172        3.06       0.155
  WS02004997           JUNCTION      0.42    63.71     0  03:00      0.0693        6.14       0.656
  WS02005122           JUNCTION      1.20     1.20     0  03:01       0.071       0.071       0.156
  WS02005123           JUNCTION      0.06     1.25     0  03:01     0.00977      0.0807       0.210
  WS02005124           JUNCTION      0.04     1.29     0  03:01     0.00611      0.0866       0.310
  WS02005126           JUNCTION      1.08     2.36     0  03:01      0.0647       0.151       0.393
  WS02005127           JUNCTION      0.05     2.39     0  03:01     0.00848       0.159       0.342
  WS02005129           JUNCTION      1.18     3.54     0  03:01      0.0675       0.226       0.250
  WS02005131           JUNCTION      0.04     3.58     0  03:01     0.00682       0.232       0.336
  WS02005132           JUNCTION      0.05     3.61     0  03:01     0.00808       0.239       0.473
  WS02005133           JUNCTION      0.06     3.65     0  03:02        0.01       0.248       0.402
  WS02005135           JUNCTION      1.74     5.31     0  03:01       0.102       0.349       0.233
  WS02005137           JUNCTION      0.04     5.33     0  03:01     0.00625       0.354       0.355
  WS02005138           JUNCTION      0.06     5.38     0  03:02      0.0101       0.363       0.435
  WS02005140           JUNCTION      0.06     5.44     0  03:02        0.01       0.372       0.254
  WS02005142           JUNCTION      1.94     7.25     0  03:01       0.111       0.482       0.272
  WS02005144           JUNCTION      0.06     7.29     0  03:01     0.00927        0.49       0.264
  WS02005145           JUNCTION      0.04     7.33     0  03:02     0.00618       0.495       0.373
  WS02005147           JUNCTION      0.05     7.37     0  03:02     0.00749         0.5       0.235
  WS02005152           JUNCTION      0.06     7.43     0  03:03     0.00981       0.509       0.272
  WS02005154           JUNCTION      0.84     8.15     0  03:03      0.0514       0.559       0.151
  WS02005155           JUNCTION      0.06     8.20     0  03:03        0.01       0.568       0.195
  WS02005162           JUNCTION      0.08     3.51     0  03:12      0.0127       0.301       0.359
  WS02005163           JUNCTION      0.13     3.21     0  03:01        0.02        0.29       0.367
  WS02005164           JUNCTION      0.49     3.11     0  03:01      0.0309       0.271       0.365
  WS02005165           JUNCTION      0.11     2.65     0  03:02      0.0168       0.241       0.318
  WS02005166           JUNCTION      0.11     2.57     0  03:01      0.0167       0.225       0.340
  WS02005167           JUNCTION      0.47     2.49     0  03:01      0.0313       0.209       0.492
  WS02005170           JUNCTION      0.09     2.04     0  03:01       0.013       0.178       0.363
  WS02005171           JUNCTION      0.02     1.98     0  03:01     0.00326       0.166       0.386
  WS02005175           JUNCTION      0.73     1.97     0  03:01      0.0405       0.163       0.317
  WS02005176           JUNCTION      0.08     1.25     0  03:03      0.0123       0.123       0.459
  WS02005180           JUNCTION      0.11     1.19     0  03:02      0.0172       0.112       0.637
  WS02005181           JUNCTION      0.13     1.10     0  03:02      0.0203      0.0949       0.483
  WS02005183           JUNCTION      0.03     1.00     0  03:01     0.00433      0.0749       0.283
  WS02005184           JUNCTION      0.09     0.98     0  03:01       0.013      0.0707       0.308
  WS02005185           JUNCTION      0.07     0.91     0  03:01      0.0111      0.0578       0.213
  WS02005186           JUNCTION      0.86     0.86     0  03:01      0.0468      0.0468       0.134
  WS02005188           JUNCTION      0.03     4.51     0  03:11     0.00497       0.305       0.244
  WS02005191           JUNCTION      0.06     5.36     0  03:11     0.00844       0.313       0.339
  WS02005192           JUNCTION      1.95     7.59     0  03:11       0.119        0.43       0.299
  WS02005193           JUNCTION      0.09     9.06     0  03:10      0.0146       0.462       0.248
  WS02005196           JUNCTION      0.12     7.86     0  03:10       0.019       0.448       0.281
  WS02006109           JUNCTION      0.08    47.45     0  03:20      0.0135        2.28       0.304
  WS02006110           JUNCTION      0.08    47.28     0  03:21      0.0132        2.29       0.288
  WS02006111           JUNCTION      0.24    48.49     0  03:22      0.0366        2.44       0.076
  WS02006112           JUNCTION      0.18    48.53     0  03:21      0.0273        2.47       0.238
  WS02006113           JUNCTION      2.03    48.09     0  03:21       0.129        2.41       0.218
  WS02006115           JUNCTION      0.08    48.35     0  03:22      0.0134        2.48       0.225
  WS02006116           JUNCTION      0.24    48.10     0  03:22       0.036        2.51       0.219
  WS02006183           JUNCTION      0.00     0.00     0  00:00           0           0       0.000 ltr
  WS02006228           JUNCTION      2.63    47.58     0  03:20       0.169        2.27       0.217
  WS02006229           JUNCTION      0.13    45.55     0  03:20        0.02        2.11       0.182
  WS02006230           JUNCTION      0.07    45.75     0  03:20      0.0116        2.09       0.183
  WS02006231           JUNCTION      0.13    46.22     0  03:20      0.0205        2.08       0.113
  WS02006232           JUNCTION      1.38    46.58     0  03:20      0.0837        2.06       0.116
  WS02006234           JUNCTION      0.14    46.31     0  03:19      0.0216        1.98       0.121
  WS02006235           JUNCTION      0.14    46.31     0  03:19      0.0223        1.96       0.082
  WS02006238           JUNCTION      0.15    46.38     0  03:19      0.0235        1.94       0.119
  WS02006239           JUNCTION      0.11    34.96     0  03:10      0.0174        1.36       0.227
  WS02006242           JUNCTION      0.08    34.82     0  03:09      0.0129        1.34       0.252
  WS02006240           JUNCTION      0.06    34.79     0  03:10     0.00992        1.35       0.157
  WS02006243           JUNCTION      0.17    34.96     0  03:09      0.0269        1.33       0.144
  WS02006245           JUNCTION      0.07    34.98     0  03:09      0.0113         1.3       0.128
  WS02006247           JUNCTION      1.15    35.08     0  03:09        0.08        1.29       0.130
  WS02006248           JUNCTION      0.12    34.39     0  03:09      0.0192        1.22       0.087
  WS02006249           JUNCTION      0.19    34.65     0  03:09      0.0286         1.2       0.159
  WS02006251           JUNCTION      0.57    35.01     0  03:08      0.0365        1.17       0.140
  WS02006253           JUNCTION      0.11    34.95     0  03:08      0.0173        1.14       0.056
  WS02618401           JUNCTION      0.00     0.00     0  00:00           0           0       0.000 ltr
  WS8802               JUNCTION      0.00     0.00     0  00:00           0           0       0.000 ltr
  WSA1649              JUNCTION      0.00     0.00     0  00:00           0           0       0.000 ltr
  WSF200               JUNCTION      0.14    54.90     0  03:19      0.0216        3.12       0.052
  XR-Inflow            JUNCTION     63.30    63.30     0  03:00         6.1         6.1       0.372
  WS02004114           JUNCTION      0.57    64.25     0  03:00      0.0916        6.21       0.343
  outfall-24           OUTFALL       0.00    60.40     0  03:10           0        3.46       0.000
  outfall-2            OUTFALL       0.00     0.00     0  00:00           0           0       0.000 ltr
  outfall-5            OUTFALL       0.00     0.00     0  00:00           0           0       0.000 ltr
  outfall-8            OUTFALL       0.00     0.00     0  00:00           0           0       0.000 ltr
  outfall-14           OUTFALL       0.00     0.00     0  00:00           0           0       0.000 ltr
  outfall-16           OUTFALL       0.00     0.00     0  00:00           0           0       0.000 ltr
  outfall-17           OUTFALL       0.00     0.00     0  00:00           0           0       0.000 ltr
  outfall-27           OUTFALL       0.00     0.00     0  00:00           0           0       0.000 ltr
  outfall-28           OUTFALL       0.00     0.00     0  00:00           0           0       0.000 ltr
  67                   OUTFALL       0.00     0.00     0  00:00           0           0       0.000 ltr
  12                   OUTFALL       0.00    83.25     0  03:35           0        7.32       0.000
  XR-storage           STORAGE       0.00    64.25     0  03:00           0        6.19      -0.466
  CC-storage           STORAGE       7.35     7.35     0  03:00       0.609       0.609     -12.936
  JK-storage           STORAGE       7.01     7.01     0  03:00       0.514       0.514      -8.380
  
  
  **********************
  Node Surcharge Summary
  **********************
  
  Surcharging occurs when water rises above the top of the highest conduit.
  ---------------------------------------------------------------------
                                               Max. Height   Min. Depth
                                   Hours       Above Crown    Below Rim
  Node                 Type      Surcharged         Meters       Meters
  ---------------------------------------------------------------------
  WS01000070           JUNCTION        4.00          0.000        0.000
  WS01000323           JUNCTION        4.00          0.000        0.000
  WS01000533           JUNCTION        4.00          0.000        2.147
  WS01005172           JUNCTION        4.00          0.000        0.000
  WS01005181           JUNCTION        4.00          0.000        0.000
  WS01009841           JUNCTION        4.00          0.000        0.000
  WS02000078           JUNCTION        4.00          0.000        0.000
  WS02000112           JUNCTION        4.00          0.000        0.000
  WS02000136           JUNCTION        4.00          0.000        0.000
  WS02004053           JUNCTION        4.00          0.000        0.000
  WS02004997           JUNCTION        3.17          5.468        0.532
  WS02006183           JUNCTION        4.00          0.000        0.000
  WS02618401           JUNCTION        4.00          0.000        0.000
  WS8802               JUNCTION        4.00          0.000        4.942
  WSA1649              JUNCTION        4.00          0.000        0.000
  XR-Inflow            JUNCTION        3.14          5.350        0.300
  WS02004114           JUNCTION        3.18          5.402        1.113
  
  
  *********************
  Node Flooding Summary
  *********************
  
  No nodes were flooded.
  
  
  **********************
  Storage Volume Summary
  **********************
  
  --------------------------------------------------------------------------------------------------
                         Average     Avg  Evap Exfil       Maximum     Max    Time of Max    Maximum
                          Volume    Pcnt  Pcnt  Pcnt        Volume    Pcnt     Occurrence    Outflow
  Storage Unit           1000 m3    Full  Loss  Loss       1000 m3    Full    days hr:min        MLD
  --------------------------------------------------------------------------------------------------
  XR-storage               0.057      91     0     0         0.060      96       0  03:10      64.22
  CC-storage               0.032      20     0     0         0.135      85       0  02:54      32.73
  JK-storage               0.029      21     0     0         0.124      91       0  02:53      34.26
  
  
  ***********************
  Outfall Loading Summary
  ***********************
  
  ---------------------------------------------------------------------------------------------------------------------------------
                         Flow       Avg       Max       Total         Total         Total         Total         Total         Total
                         Freq      Flow      Flow      Volume           COD         NH3-N            TN            TP            SS
  Outfall Node           Pcnt       MLD       MLD    10^6 ltr            kg            kg            kg            kg            kg
  ---------------------------------------------------------------------------------------------------------------------------------
  outfall-24            93.86     30.93     60.40       3.464       396.318         0.000         0.000         0.000         0.000
  outfall-2              0.00      0.00      0.00       0.000         0.000         0.000         0.000         0.000         0.000
  outfall-5              0.00      0.00      0.00       0.000         0.000         0.000         0.000         0.000         0.000
  outfall-8              0.00      0.00      0.00       0.000         0.000         0.000         0.000         0.000         0.000
  outfall-14             0.00      0.00      0.00       0.000         0.000         0.000         0.000         0.000         0.000
  outfall-16             0.00      0.00      0.00       0.000         0.000         0.000         0.000         0.000         0.000
  outfall-17             0.00      0.00      0.00       0.000         0.000         0.000         0.000         0.000         0.000
  outfall-27             0.00      0.00      0.00       0.000         0.000         0.000         0.000         0.000         0.000
  outfall-28             0.00      0.00      0.00       0.000         0.000         0.000         0.000         0.000         0.000
  67                     0.00      0.00      0.00       0.000         0.000         0.000         0.000         0.000         0.000
  12                   100.00     47.03     83.25       7.322       855.241         0.000         0.000         0.000         0.000
  ---------------------------------------------------------------------------------------------------------------------------------
  System                17.62     77.95    135.23      10.786      1251.559         0.000         0.000         0.000         0.000
  
  
  ********************
  Link Flow Summary
  ********************
  
  -----------------------------------------------------------------------------
                                 Maximum  Time of Max   Maximum    Max/    Max/
                                  |Flow|   Occurrence   |Veloc|    Full    Full
  Link                 Type          MLD  days hr:min     m/sec    Flow   Depth
  -----------------------------------------------------------------------------
  WSL49                CONDUIT     83.18     0  03:34      1.83    1.03    0.50
  WSL50                CONDUIT     12.09     0  03:10      1.68    0.83    0.34
  WSL51                CONDUIT     12.02     0  03:10      1.02    1.22    0.49
  WSL52                CONDUIT     12.00     0  03:09      0.89    0.56    0.54
  WSL53                CONDUIT     11.99     0  03:08      0.83    1.25    0.57
  WSL54                CONDUIT     12.01     0  03:08      0.76    0.96    0.61
  WSL55                CONDUIT     11.99     0  03:08      0.84    0.32    0.57
  WSL77                CONDUIT     12.00     0  03:07      0.94    0.63    0.52
  WSL78                CONDUIT     12.01     0  03:07      0.87    0.79    0.55
  WSL79                CONDUIT     12.03     0  03:06      0.91    0.41    0.53
  WSL80                CONDUIT     12.12     0  03:10      1.20    0.28    0.43
  WSL81                CONDUIT     12.41     0  03:09      1.34    0.92    0.41
  WSL82                CONDUIT     12.36     0  03:09      1.57    0.16    0.36
  WSL83                CONDUIT     12.25     0  03:09      2.32    0.15    0.27
  WSL84                CONDUIT      8.47     0  03:03      1.38    0.26    0.30
  WSL85                CONDUIT      0.41     0  01:21      0.40    0.01    0.53
  WSL86                CONDUIT      0.09     0  03:18      0.20    0.00    0.38
  WSL122               CONDUIT     10.07     0  03:06      0.64    1.01    0.61
  WSL123               CONDUIT     12.68     0  03:08      1.73    0.47    0.34
  WSL144               CONDUIT      9.58     0  03:05      0.64    0.38    0.59
  WSL145               CONDUIT     10.01     0  03:05      0.62    0.95    0.63
  WSL146               CONDUIT     10.66     0  03:05      0.71    0.78    0.59
  WSL147               CONDUIT     10.69     0  03:06      0.70    0.55    0.60
  WSL148               CONDUIT     10.71     0  03:07      0.71    1.02    0.59
  WSL149               CONDUIT     11.62     0  03:06      0.98    1.52    0.49
  WSL150               CONDUIT     11.72     0  03:05      1.31    0.39    0.39
  WSL151               CONDUIT     11.75     0  03:05      1.31    0.30    0.40
  WSL500               CONDUIT      7.43     0  03:03      1.36    0.25    0.28
  WSL502               CONDUIT      8.14     0  03:03      1.42    0.12    0.28
  WSL508               CONDUIT      4.49     0  03:11      0.71    0.17    0.41
  WSL509               CONDUIT      3.44     0  03:12      0.69    0.15    0.34
  WSL551               CONDUIT      3.54     0  03:01      0.98    0.08    0.21
  WSL553               CONDUIT      3.56     0  03:01      0.75    0.10    0.25
  WSL554               CONDUIT      3.60     0  03:02      0.67    0.19    0.27
  WSL555               CONDUIT      3.66     0  03:03      0.77    0.15    0.25
  WSL1465              CONDUIT     35.22     0  00:05      1.99    0.32    0.50
  WSL1472              CONDUIT     71.89     0  03:33      1.61    0.82    0.47
  WSL1475              CONDUIT     98.30     0  03:34      2.53    1.05    0.34
  WSL1476              CONDUIT     15.38     0  03:10      0.85    0.07    0.46
  WSL1477              CONDUIT      4.12     0  03:04      1.70    0.16    0.16
  WSL1490              CONDUIT     34.94     0  00:04      1.60    0.57    0.40
  WSL1491              CONDUIT     33.79     0  01:18      1.86    0.20    0.43
  WSL1492              CONDUIT     36.71     0  00:05      1.71    0.57    0.47
  WSL1506              CONDUIT      0.07     0  01:24      0.40    0.00    0.02
  WSL1507              CONDUIT      0.09     0  01:53      0.21    0.00    0.09
  WSL1508              CONDUIT      1.96     0  03:01      0.57    0.06    0.13
  WSL1512              CONDUIT      1.96     0  03:02      0.43    0.01    0.12
  WSL1513              CONDUIT      2.02     0  03:04      0.36    0.12    0.19
  WSL1515              CONDUIT     59.52     0  03:10      2.37    0.58    0.30
  WSL1516              CONDUIT      3.68     0  03:04      1.45    0.01    0.16
  WSL1518              CONDUIT      3.52     0  03:01      0.60    0.07    0.19
  WSL1519              CONDUIT      3.53     0  03:03      0.57    0.09    0.20
  WSL1521              CONDUIT      3.56     0  03:03      0.64    0.10    0.19
  WSL1525              CONDUIT      8.28     0  03:04      1.65    0.15    0.26
  WSL1526              CONDUIT      8.27     0  03:04      1.43    0.14    0.29
  WSL1529              CONDUIT      8.56     0  03:04      1.37    0.22    0.30
  WSL1530              CONDUIT      8.68     0  03:04      1.28    0.46    0.42
  WSL1532              CONDUIT      9.47     0  03:03      1.00    0.23    0.41
  WSL1543              CONDUIT      3.52     0  03:02      0.56    0.11    0.20
  WSL1545              CONDUIT      9.54     0  03:05      0.74    0.39    0.52
  WSL1641              CONDUIT      3.11     0  03:01      0.66    0.13    0.28
  WSL1642              CONDUIT      2.65     0  03:02      0.69    0.08    0.22
  WSL1643              CONDUIT      2.57     0  03:02      0.81    0.08    0.19
  WSL1644              CONDUIT      2.48     0  03:01      0.66    0.13    0.21
  WSL1646              CONDUIT      2.04     0  03:02      0.59    0.06    0.20
  WSL1647              CONDUIT      1.97     0  03:01      0.71    0.07    0.17
  WSL1652              CONDUIT      1.25     0  03:03      0.55    0.07    0.19
  WSL1764              CONDUIT      8.61     0  03:04      1.21    0.16    0.33
  WSL1931              CONDUIT      1.18     0  03:03      0.49    0.10    0.20
  WSL1932              CONDUIT      1.10     0  03:02      0.46    0.07    0.20
  WSL1934              CONDUIT      1.00     0  03:02      0.60    0.03    0.15
  WSL1935              CONDUIT      0.97     0  03:01      0.69    0.05    0.14
  WSL1961              CONDUIT     39.15     0  00:01      3.75    0.08    0.27
  WSL1964              CONDUIT     35.50     0  00:02      1.79    0.19    0.33
  WSL2010              CONDUIT     47.69     0  03:22      1.34    0.61    0.52
  WSL2011              CONDUIT     47.70     0  03:23      1.23    0.31    0.56
  WSL2012              CONDUIT     47.73     0  03:23      1.13    0.73    0.60
  WSL2013              CONDUIT     48.04     0  03:23      1.18    1.19    0.58
  WSL2014              CONDUIT     48.87     0  03:23      1.29    0.78    0.55
  WSL2015              CONDUIT     48.79     0  03:24      1.37    0.65    0.52
  WSL2016              CONDUIT     49.51     0  03:24      1.47    0.57    0.50
  WSL2017              CONDUIT     49.68     0  03:24      1.60    0.60    0.47
  WSL2018              CONDUIT     50.73     0  03:25      2.04    0.30    0.39
  WSL2019              CONDUIT     50.90     0  03:25      1.88    0.30    0.43
  WSL2028              CONDUIT     47.69     0  03:22      1.33    0.51    0.52
  WSL2029              CONDUIT     49.91     0  03:25      1.86    0.63    0.42
  WSL2031              CONDUIT      0.91     0  03:01      0.65    0.03    0.14
  WSL2032              CONDUIT      0.85     0  03:01      0.77    0.06    0.16
  WSL2034              CONDUIT      5.31     0  03:11      0.64    0.16    0.49
  WSL2037              CONDUIT      6.36     0  03:11      0.62    0.33    0.55
  WSL2038              CONDUIT      7.76     0  03:10      0.72    0.39    0.59
  WSL2039              CONDUIT     11.03     0  03:09      1.07    0.57    0.67
  WSL2041              CONDUIT      8.98     0  03:10      0.81    0.44    0.62
  WSL2124              CONDUIT      5.30     0  03:01      0.97    0.13    0.28
  WSL2126              CONDUIT      5.33     0  03:02      0.82    0.21    0.31
  WSL2127              CONDUIT      5.38     0  03:02      0.97    0.29    0.28
  WSL2128              CONDUIT      5.43     0  03:03      0.99    0.13    0.28
  WSL2130              CONDUIT      7.24     0  03:01      1.16    0.22    0.30
  WSL2146              CONDUIT      7.29     0  03:02      1.03    0.19    0.33
  WSL2147              CONDUIT      7.33     0  03:02      1.05    0.39    0.33
  WSL2148              CONDUIT      7.37     0  03:03      1.19    0.18    0.30
  WSL2294              CONDUIT     47.21     0  03:21      1.39    1.59    0.73
  WSL2295              CONDUIT     47.18     0  03:21      1.64    2.12    0.63
  WSL2296              CONDUIT     48.38     0  03:21      2.06    0.27    0.54
  WSL2297              CONDUIT     48.28     0  03:22      1.32    0.93    0.53
  WSL2298              CONDUIT     48.30     0  03:22      2.39    2.22    0.48
  WSL2301              CONDUIT     47.91     0  03:22      1.35    0.44    0.52
  WSL2302              CONDUIT     47.86     0  03:22      1.33    0.59    0.52
  WSL2357              CONDUIT      1.20     0  03:01      0.85    0.22    0.28
  WSL2358              CONDUIT      1.25     0  03:01      1.03    0.14    0.25
  WSL2359              CONDUIT      1.28     0  03:01      0.55    0.05    0.20
  WSL2361              CONDUIT      2.35     0  03:01      0.77    0.13    0.23
  WSL2362              CONDUIT      2.39     0  03:02      0.82    0.11    0.23
  WSL2441              CONDUIT     47.38     0  03:20      1.30    1.21    0.78
  WSL2442              CONDUIT     45.44     0  03:20      1.45    1.16    0.89
  WSL2443              CONDUIT     45.68     0  03:20      1.55    0.71    0.83
  WSL2444              CONDUIT     46.11     0  03:20      1.81    0.73    0.72
  WSL2446              CONDUIT     46.00     0  03:20      1.91    0.79    0.69
  WSL2447              CONDUIT     46.19     0  03:19      1.79    2.38    0.74
  WSL2448              CONDUIT     46.19     0  03:19      1.62    1.30    0.80
  WSL2449              CONDUIT     34.74     0  03:10      1.39    1.21    0.79
  WSL2450              CONDUIT     34.87     0  03:10      1.38    0.72    0.71
  WSL2451              CONDUIT     34.73     0  03:10      1.31    2.26    0.74
  WSL2452              CONDUIT     34.75     0  03:09      1.31    0.66    0.74
  WSL2454              CONDUIT     34.82     0  03:09      1.43    0.81    0.69
  WSL2478              CONDUIT     34.91     0  03:09      1.39    1.23    0.71
  WSL2479              CONDUIT     34.19     0  03:09      1.38    0.65    0.70
  WSL2480              CONDUIT     34.28     0  03:09      1.39    1.59    0.69
  WSL2482              CONDUIT     34.50     0  03:09      1.34    0.90    0.72
  WSL2484              CONDUIT     34.62     0  03:08      1.52    0.49    0.66
  WSL2493              CONDUIT     45.35     0  03:20      1.24    0.76    0.78
  WSL2867              CONDUIT     54.78     0  03:19      3.34    0.11    0.23
  WSL2868              CONDUIT     55.80     0  03:19      2.36    0.11    0.32
  5                    CONDUIT      1.96     0  03:01      0.76    0.09    0.21
  WSL348               CONDUIT     63.30     0  03:00      1.88    0.58    1.00
  WSL175               CONDUIT     63.71     0  03:00      2.49    2.15    1.00
  WSL1467              CONDUIT     71.97     0  03:32      1.57    0.38    0.48
  WSL1473              CONDUIT     72.14     0  03:34      1.59    0.30    0.47
  XRpipe               CONDUIT     64.25     0  03:00      8.80    0.16    1.00
  8                    CONDUIT      0.00     0  00:00      0.00    0.00    0.00
  19                   CONDUIT      0.00     0  00:00      0.00    0.00    0.00
  17                   CONDUIT      0.00     0  00:00      0.00    0.00    0.00
  4                    CONDUIT      0.00     0  00:00      0.00    0.00    0.00
  outletpipe           CONDUIT     60.40     0  03:10     13.46    0.20    0.31
  11                   CONDUIT      0.00     0  00:00      0.00    0.00    0.00
  20                   CONDUIT      0.00     0  00:00      0.00    0.00    0.00
  1                    CONDUIT      0.00     0  00:00      0.00    0.00    0.00
  28                   CONDUIT      0.00     0  00:00      0.00    0.00    0.00
  30                   CONDUIT      0.00     0  00:00      0.00    0.00    0.00
  2                    CONDUIT     83.25     0  03:35      3.57    0.30    0.38
  XR-Pump-1            PUMP         8.12     0  00:01              1.00
  XR-Pump-3            PUMP         8.12     0  00:01              1.00
  XR-Pump-2            PUMP         8.12     0  00:01              1.00
  XR-Pump-4            PUMP         8.12     0  00:01              1.00
  CC-Pump-1            PUMP        15.45     0  03:08              0.89
  CC-Pump-2            PUMP        17.28     0  03:00              1.00
  JK-Pump-1            PUMP        17.13     0  03:19              0.99
  JK-Pump-2            PUMP        17.28     0  03:00              1.00
  
  
  ***************************
  Flow Classification Summary
  ***************************
  
  -------------------------------------------------------------------------------------
                      Adjusted    ---------- Fraction of Time in Flow Class ---------- 
                       /Actual         Up    Down  Sub   Sup   Up    Down  Norm  Inlet 
  Conduit               Length    Dry  Dry   Dry   Crit  Crit  Crit  Crit  Ltd   Ctrl  
  -------------------------------------------------------------------------------------
  WSL49                   1.00   0.00  0.00  0.00  1.00  0.00  0.00  0.00  0.00  0.00
  WSL50                   1.00   0.00  0.00  0.00  0.08  0.92  0.00  0.00  0.00  0.00
  WSL51                   1.00   0.00  0.00  0.00  1.00  0.00  0.00  0.00  0.01  0.00
  WSL52                   1.00   0.00  0.00  0.00  1.00  0.00  0.00  0.00  0.09  0.00
  WSL53                   1.00   0.00  0.00  0.00  1.00  0.00  0.00  0.00  0.01  0.00
  WSL54                   1.00   0.00  0.00  0.00  1.00  0.00  0.00  0.00  0.00  0.00
  WSL55                   1.00   0.00  0.00  0.00  1.00  0.00  0.00  0.00  0.21  0.00
  WSL77                   1.00   0.00  0.00  0.00  1.00  0.00  0.00  0.00  0.00  0.00
  WSL78                   1.00   0.00  0.00  0.00  1.00  0.00  0.00  0.00  0.00  0.00
  WSL79                   1.00   0.00  0.00  0.00  1.00  0.00  0.00  0.00  0.36  0.00
  WSL80                   1.00   0.00  0.00  0.00  1.00  0.00  0.00  0.00  0.53  0.00
  WSL81                   1.00   0.00  0.00  0.00  1.00  0.00  0.00  0.00  0.00  0.00
  WSL82                   1.00   0.00  0.00  0.00  0.24  0.76  0.00  0.00  0.95  0.00
  WSL83                   1.00   0.00  0.00  0.00  0.00  1.00  0.00  0.00  0.48  0.00
  WSL84                   1.00   0.00  0.00  0.00  0.01  0.99  0.00  0.00  0.03  0.00
  WSL85                   1.00   0.00  0.00  0.00  1.00  0.00  0.00  0.00  0.12  0.00
  WSL86                   1.00   0.00  0.00  0.00  1.00  0.00  0.00  0.00  0.49  0.00
  WSL122                  1.00   0.00  0.00  0.00  1.00  0.00  0.00  0.00  0.00  0.00
  WSL123                  1.00   0.00  0.00  0.00  0.02  0.98  0.00  0.00  0.01  0.00
  WSL144                  1.00   0.00  0.00  0.00  1.00  0.00  0.00  0.00  0.27  0.00
  WSL145                  1.00   0.00  0.00  0.00  1.00  0.00  0.00  0.00  0.01  0.00
  WSL146                  1.00   0.00  0.00  0.00  1.00  0.00  0.00  0.00  0.03  0.00
  WSL147                  1.00   0.00  0.00  0.00  1.00  0.00  0.00  0.00  0.04  0.00
  WSL148                  1.00   0.00  0.00  0.00  1.00  0.00  0.00  0.00  0.00  0.00
  WSL149                  1.00   0.00  0.00  0.00  1.00  0.00  0.00  0.00  0.01  0.00
  WSL150                  1.00   0.00  0.00  0.00  0.34  0.66  0.00  0.00  0.00  0.00
  WSL151                  1.00   0.00  0.00  0.00  0.69  0.31  0.00  0.00  0.13  0.00
  WSL500                  1.00   0.00  0.00  0.00  0.01  0.99  0.00  0.00  0.00  0.00
  WSL502                  1.00   0.00  0.00  0.00  0.01  0.99  0.00  0.00  1.00  0.00
  WSL508                  1.00   0.00  0.00  0.00  1.00  0.00  0.00  0.00  0.11  0.00
  WSL509                  1.00   0.00  0.00  0.00  1.00  0.00  0.00  0.00  0.00  0.00
  WSL551                  1.00   0.00  0.00  0.00  0.44  0.56  0.00  0.00  0.89  0.00
  WSL553                  1.00   0.00  0.00  0.00  1.00  0.00  0.00  0.00  1.00  0.00
  WSL554                  1.00   0.00  0.00  0.00  1.00  0.00  0.00  0.00  0.23  0.00
  WSL555                  1.00   0.00  0.00  0.00  1.00  0.00  0.00  0.00  0.00  0.00
  WSL1465                 1.00   0.00  0.00  0.00  1.00  0.00  0.00  0.00  0.18  0.00
  WSL1472                 1.00   0.00  0.00  0.00  1.00  0.00  0.00  0.00  0.00  0.00
  WSL1475                 1.00   0.00  0.00  0.00  0.14  0.86  0.00  0.00  0.00  0.00
  WSL1476                 1.00   0.00  0.00  0.00  1.00  0.00  0.00  0.00  1.00  0.00
  WSL1477                 1.00   0.00  0.00  0.00  0.00  1.00  0.00  0.00  0.12  0.00
  WSL1490                 1.00   0.00  0.00  0.00  1.00  0.00  0.00  0.00  0.01  0.00
  WSL1491                 1.00   0.00  0.00  0.00  1.00  0.00  0.00  0.00  0.28  0.00
  WSL1492                 1.00   0.00  0.00  0.00  1.00  0.00  0.00  0.00  0.02  0.00
  WSL1506                 1.00   0.00  0.00  0.00  1.00  0.00  0.00  0.00  0.99  0.00
  WSL1507                 1.00   0.00  0.00  0.00  1.00  0.00  0.00  0.00  1.00  0.00
  WSL1508                 1.00   0.00  0.00  0.00  1.00  0.00  0.00  0.00  0.00  0.00
  WSL1512                 1.00   0.00  0.00  0.00  1.00  0.00  0.00  0.00  1.00  0.00
  WSL1513                 1.00   0.00  0.00  0.00  1.00  0.00  0.00  0.00  0.00  0.00
  WSL1515                 1.00   0.00  0.00  0.00  0.03  0.97  0.00  0.00  0.01  0.00
  WSL1516                 1.00   0.00  0.00  0.00  0.00  1.00  0.00  0.00  1.00  0.00
  WSL1518                 1.00   0.00  0.00  0.00  1.00  0.00  0.00  0.00  0.88  0.00
  WSL1519                 1.00   0.00  0.00  0.00  1.00  0.00  0.00  0.00  0.36  0.00
  WSL1521                 1.00   0.00  0.00  0.00  1.00  0.00  0.00  0.00  0.02  0.00
  WSL1525                 1.00   0.00  0.00  0.00  0.00  1.00  0.00  0.00  0.16  0.00
  WSL1526                 1.00   0.00  0.00  0.00  0.01  0.99  0.00  0.00  0.69  0.00
  WSL1529                 1.00   0.00  0.00  0.00  0.00  1.00  0.00  0.00  0.93  0.00
  WSL1530                 1.00   0.00  0.00  0.00  0.26  0.74  0.00  0.00  0.00  0.00
  WSL1532                 1.00   0.00  0.00  0.00  1.00  0.00  0.00  0.00  1.00  0.00
  WSL1543                 1.00   0.00  0.00  0.00  1.00  0.00  0.00  0.00  0.02  0.00
  WSL1545                 1.00   0.00  0.00  0.00  1.00  0.00  0.00  0.00  0.05  0.00
  WSL1641                 1.00   0.00  0.00  0.00  1.00  0.00  0.00  0.00  0.42  0.00
  WSL1642                 1.00   0.00  0.00  0.00  1.00  0.00  0.00  0.00  0.98  0.00
  WSL1643                 1.00   0.00  0.00  0.00  1.00  0.00  0.00  0.00  0.51  0.00
  WSL1644                 1.00   0.00  0.00  0.00  1.00  0.00  0.00  0.00  0.02  0.00
  WSL1646                 1.00   0.00  0.00  0.00  1.00  0.00  0.00  0.00  0.99  0.00
  WSL1647                 1.00   0.00  0.00  0.00  1.00  0.00  0.00  0.00  0.02  0.00
  WSL1652                 1.00   0.00  0.00  0.00  1.00  0.00  0.00  0.00  0.50  0.00
  WSL1764                 1.00   0.00  0.00  0.00  0.25  0.75  0.00  0.00  0.38  0.00
  WSL1931                 1.00   0.00  0.00  0.00  1.00  0.00  0.00  0.00  0.00  0.00
  WSL1932                 1.00   0.00  0.00  0.00  1.00  0.00  0.00  0.00  0.99  0.00
  WSL1934                 1.00   0.00  0.00  0.00  1.00  0.00  0.00  0.00  1.00  0.00
  WSL1935                 1.00   0.00  0.00  0.00  0.98  0.02  0.00  0.00  0.00  0.00
  WSL1961                 1.00   0.00  0.00  0.00  0.44  0.56  0.00  0.00  0.99  0.00
  WSL1964                 1.00   0.00  0.00  0.00  1.00  0.00  0.00  0.00  0.42  0.00
  WSL2010                 1.00   0.00  0.00  0.00  1.00  0.00  0.00  0.00  0.00  0.00
  WSL2011                 1.00   0.00  0.00  0.00  1.00  0.00  0.00  0.00  0.13  0.00
  WSL2012                 1.00   0.00  0.00  0.00  1.00  0.00  0.00  0.00  0.00  0.00
  WSL2013                 1.00   0.00  0.00  0.00  1.00  0.00  0.00  0.00  0.00  0.00
  WSL2014                 1.00   0.00  0.00  0.00  1.00  0.00  0.00  0.00  0.00  0.00
  WSL2015                 1.00   0.00  0.00  0.00  1.00  0.00  0.00  0.00  0.02  0.00
  WSL2016                 1.00   0.00  0.00  0.00  1.00  0.00  0.00  0.00  0.05  0.00
  WSL2017                 1.00   0.00  0.00  0.00  1.00  0.00  0.00  0.00  0.04  0.00
  WSL2018                 1.00   0.00  0.00  0.00  0.00  1.00  0.00  0.00  0.14  0.00
  WSL2019                 1.00   0.00  0.00  0.00  0.08  0.92  0.00  0.00  0.11  0.00
  WSL2028                 1.00   0.00  0.00  0.00  1.00  0.00  0.00  0.00  0.07  0.00
  WSL2029                 1.00   0.00  0.00  0.00  0.41  0.59  0.00  0.00  0.00  0.00
  WSL2031                 1.00   0.00  0.00  0.00  1.00  0.00  0.00  0.00  1.00  0.00
  WSL2032                 1.00   0.00  0.00  0.00  0.43  0.57  0.00  0.00  0.64  0.00
  WSL2034                 1.00   0.00  0.00  0.00  1.00  0.00  0.00  0.00  0.07  0.00
  WSL2037                 1.00   0.00  0.00  0.00  1.00  0.00  0.00  0.00  0.03  0.00
  WSL2038                 1.00   0.00  0.00  0.00  1.00  0.00  0.00  0.00  0.03  0.00
  WSL2039                 1.00   0.00  0.00  0.00  0.84  0.16  0.00  0.00  0.01  0.00
  WSL2041                 1.00   0.00  0.00  0.00  1.00  0.00  0.00  0.00  0.03  0.00
  WSL2124                 1.00   0.00  0.00  0.00  1.00  0.00  0.00  0.00  0.93  0.00
  WSL2126                 1.00   0.00  0.00  0.00  1.00  0.00  0.00  0.00  0.76  0.00
  WSL2127                 1.00   0.00  0.00  0.00  1.00  0.00  0.00  0.00  0.00  0.00
  WSL2128                 1.00   0.00  0.00  0.00  1.00  0.00  0.00  0.00  0.99  0.00
  WSL2130                 1.00   0.00  0.00  0.00  0.51  0.49  0.00  0.00  0.01  0.00
  WSL2146                 1.00   0.00  0.00  0.00  1.00  0.00  0.00  0.00  0.93  0.00
  WSL2147                 1.00   0.00  0.00  0.00  1.00  0.00  0.00  0.00  0.01  0.00
  WSL2148                 1.00   0.00  0.00  0.00  0.42  0.58  0.00  0.00  0.50  0.00
  WSL2294                 1.00   0.00  0.00  0.00  1.00  0.00  0.00  0.00  0.00  0.00
  WSL2295                 1.00   0.00  0.00  0.00  1.00  0.00  0.00  0.00  0.00  0.00
  WSL2296                 1.00   0.00  0.00  0.00  0.14  0.86  0.00  0.00  0.81  0.00
[...]
  XRpipe                  1.00   0.00  0.00  0.00  0.99  0.01  0.00  0.00  0.04  0.00
  8                       1.00   1.00  0.00  0.00  0.00  0.00  0.00  0.00  0.00  0.00
  19                      1.00   1.00  0.00  0.00  0.00  0.00  0.00  0.00  0.00  0.00
  17                      1.00   1.00  0.00  0.00  0.00  0.00  0.00  0.00  0.00  0.00
  4                       1.00   1.00  0.00  0.00  0.00  0.00  0.00  0.00  0.00  0.00
  outletpipe              1.00   0.06  0.00  0.00  0.00  0.94  0.00  0.00  0.00  0.00
  11                      1.00   1.00  0.00  0.00  0.00  0.00  0.00  0.00  0.00  0.00
  20                      1.00   1.00  0.00  0.00  0.00  0.00  0.00  0.00  0.00  0.00
  1                       1.00   1.00  0.00  0.00  0.00  0.00  0.00  0.00  0.00  0.00
  28                      1.00   1.00  0.00  0.00  0.00  0.00  0.00  0.00  0.00  0.00
  30                      1.00   1.00  0.00  0.00  0.00  0.00  0.00  0.00  0.00  0.00
  2                       1.00   0.00  0.00  0.00  0.00  1.00  0.00  0.00  0.28  0.00
  
  
  *************************
  Conduit Surcharge Summary
  *************************
  
  ----------------------------------------------------------------------------
                                                           Hours        Hours 
                         --------- Hours Full --------   Above Full   Capacity
  Conduit                Both Ends  Upstream  Dnstream   Normal Flow   Limited
  ----------------------------------------------------------------------------
  WSL49                       0.01      0.01      0.01      0.03         0.01
  WSL51                       0.01      0.01      0.01      0.61         0.01
  WSL53                       0.01      0.01      0.01      0.65         0.01
  WSL122                      0.01      0.01      0.01      0.06         0.01
  WSL148                      0.01      0.01      0.01      0.13         0.01
  WSL149                      0.01      0.01      0.01      1.08         0.01
  WSL1475                     0.01      0.01      0.01      0.01         0.01
  WSL2013                     0.01      0.01      0.01      0.32         0.01
  WSL2294                     0.01      0.01      0.01      0.44         0.01
  WSL2295                     0.01      0.01      0.01      0.80         0.01
  WSL2298                     0.01      0.01      0.01      0.84         0.01
  WSL2441                     0.01      0.01      0.01      0.23         0.01
  WSL2442                     0.01      0.01      0.01      0.07         0.01
  WSL2447                     0.01      0.01      0.01      0.79         0.01
  WSL2448                     0.01      0.01      0.01      0.13         0.01
  WSL2449                     0.01      0.01      0.01      0.10         0.01
  WSL2451                     0.01      0.01      0.01      0.55         0.01
  WSL2478                     0.01      0.01      0.01      0.09         0.01
  WSL2480                     0.01      0.01      0.01      0.17         0.01
  WSL348                      3.14      3.14      3.17      0.01         0.01
  WSL175                      3.17      3.17      3.18      2.30         2.27
  XRpipe                      3.18      3.18      3.67      0.01         0.01
  
  
  ***************
  Pumping Summary
  ***************
  
  ---------------------------------------------------------------------------------------------------------
                                                  Min       Avg       Max     Total     Power    % Time Off
                        Percent   Number of      Flow      Flow      Flow    Volume     Usage    Pump Curve
  Pump                 Utilized   Start-Ups       MLD       MLD       MLD  10^6 ltr     Kw-hr    Low   High
  ---------------------------------------------------------------------------------------------------------
  XR-Pump-1               66.67           5      0.00      5.67      8.12     0.670      4.49    0.0    0.0
  XR-Pump-3               66.67           5      0.00      5.67      8.12     0.670      4.49    0.0    0.0
  XR-Pump-2               66.67           5      0.00      5.67      8.12     0.670      4.49    0.0    0.0
  XR-Pump-4               66.67           5      0.00      5.67      8.12     0.670      4.49    0.0    0.0
  CC-Pump-1               16.67           1      0.00      5.02     15.45     0.139      1.64    0.0    0.0
  CC-Pump-2               45.82           3      0.00      6.50     17.28     0.518      4.85    0.0    0.0
  JK-Pump-1               12.50           1      0.00      5.08     17.13     0.106      1.06    0.0    0.0
  JK-Pump-2               54.14           3      0.00      4.76     17.28     0.456      3.92    0.0    0.0
  
  
  ***************************
  Link Pollutant Load Summary
  ***************************
  
  ------------------------------------------------------------------------------------------
                                 COD         NH3-N            TN            TP            SS
  Link                            kg            kg            kg            kg            kg
  ------------------------------------------------------------------------------------------
  WSL49                      821.362         0.000         0.000         0.000         0.000
  WSL50                      108.594         0.000         0.000         0.000         0.000
  WSL51                      107.143         0.000         0.000         0.000         0.000
  WSL52                      107.004         0.000         0.000         0.000         0.000
  WSL53                      106.352         0.000         0.000         0.000         0.000
  WSL54                      106.403         0.000         0.000         0.000         0.000
  WSL55                      105.266         0.000         0.000         0.000         0.000
  WSL77                      105.001         0.000         0.000         0.000         0.000
  WSL78                      104.393         0.000         0.000         0.000         0.000
  WSL79                      103.439         0.000         0.000         0.000         0.000
  WSL80                      101.991         0.000         0.000         0.000         0.000
  WSL81                      100.297         0.000         0.000         0.000         0.000
  WSL82                       99.434         0.000         0.000         0.000         0.000
  WSL83                       99.213         0.000         0.000         0.000         0.000
  WSL84                       57.717         0.000         0.000         0.000         0.000
  WSL85                        3.175         0.000         0.000         0.000         0.000
  WSL86                        0.880         0.000         0.000         0.000         0.000
  WSL122                      85.015         0.000         0.000         0.000         0.000
  WSL123                      98.153         0.000         0.000         0.000         0.000
  WSL144                      75.479         0.000         0.000         0.000         0.000
  WSL145                      83.904         0.000         0.000         0.000         0.000
  WSL146                      87.852         0.000         0.000         0.000         0.000
  WSL147                      88.249         0.000         0.000         0.000         0.000
  WSL148                      88.208         0.000         0.000         0.000         0.000
  WSL149                      96.187         0.000         0.000         0.000         0.000
  WSL150                      97.651         0.000         0.000         0.000         0.000
  WSL151                      97.856         0.000         0.000         0.000         0.000
  WSL500                      51.862         0.000         0.000         0.000         0.000
  WSL502                      56.155         0.000         0.000         0.000         0.000
  WSL508                      38.696         0.000         0.000         0.000         0.000
  WSL509                      36.724         0.000         0.000         0.000         0.000
  WSL551                      23.965         0.000         0.000         0.000         0.000
  WSL553                      25.042         0.000         0.000         0.000         0.000
  WSL554                      26.279         0.000         0.000         0.000         0.000
  WSL555                      27.847         0.000         0.000         0.000         0.000
  WSL1465                    332.927         0.000         0.000         0.000         0.000
  WSL1472                    683.418         0.000         0.000         0.000         0.000
  WSL1475                    839.102         0.000         0.000         0.000         0.000
  WSL1476                    134.191         0.000         0.000         0.000         0.000
  WSL1477                     23.902         0.000         0.000         0.000         0.000
  WSL1490                    317.089         0.000         0.000         0.000         0.000
  WSL1491                    321.933         0.000         0.000         0.000         0.000
  WSL1492                    327.917         0.000         0.000         0.000         0.000
  WSL1506                      1.646         0.000         0.000         0.000         0.000
  WSL1507                      2.135         0.000         0.000         0.000         0.000
  WSL1508                     12.988         0.000         0.000         0.000         0.000
  WSL1512                     13.432         0.000         0.000         0.000         0.000
  WSL1513                     15.096         0.000         0.000         0.000         0.000
  WSL1515                    339.711         0.000         0.000         0.000         0.000
  WSL1516                     24.605         0.000         0.000         0.000         0.000
  WSL1518                     21.169         0.000         0.000         0.000         0.000
  WSL1519                     21.917         0.000         0.000         0.000         0.000
  WSL1521                     23.024         0.000         0.000         0.000         0.000
  WSL1525                     59.167         0.000         0.000         0.000         0.000
  WSL1526                     59.598         0.000         0.000         0.000         0.000
  WSL1529                     62.524         0.000         0.000         0.000         0.000
  WSL1530                     65.912         0.000         0.000         0.000         0.000
  WSL1532                     70.450         0.000         0.000         0.000         0.000
  WSL1543                     21.465         0.000         0.000         0.000         0.000
  WSL1545                     74.156         0.000         0.000         0.000         0.000
  WSL1641                     33.529         0.000         0.000         0.000         0.000
  WSL1642                     30.780         0.000         0.000         0.000         0.000
  WSL1643                     28.073         0.000         0.000         0.000         0.000
  WSL1644                     25.381         0.000         0.000         0.000         0.000
  WSL1646                     22.422         0.000         0.000         0.000         0.000
  WSL1647                     20.323         0.000         0.000         0.000         0.000
  WSL1652                     16.911         0.000         0.000         0.000         0.000
  WSL1764                     64.066         0.000         0.000         0.000         0.000
  WSL1931                     14.940         0.000         0.000         0.000         0.000
  WSL1932                     12.162         0.000         0.000         0.000         0.000
  WSL1934                      8.828         0.000         0.000         0.000         0.000
  WSL1935                      8.124         0.000         0.000         0.000         0.000
  WSL1961                    304.916         0.000         0.000         0.000         0.000
  WSL1964                    312.810         0.000         0.000         0.000         0.000
  WSL2010                    260.916         0.000         0.000         0.000         0.000
  WSL2011                    266.343         0.000         0.000         0.000         0.000
  WSL2012                    271.981         0.000         0.000         0.000         0.000
  WSL2013                    277.499         0.000         0.000         0.000         0.000
  WSL2014                    296.984         0.000         0.000         0.000         0.000
  WSL2015                    298.933         0.000         0.000         0.000         0.000
  WSL2016                    314.023         0.000         0.000         0.000         0.000
  WSL2017                    317.098         0.000         0.000         0.000         0.000
  WSL2018                    331.163         0.000         0.000         0.000         0.000
  WSL2019                    333.695         0.000         0.000         0.000         0.000
  WSL2028                    255.694         0.000         0.000         0.000         0.000
  WSL2029                    322.871         0.000         0.000         0.000         0.000
  WSL2031                      5.972         0.000         0.000         0.000         0.000
  WSL2032                      4.132         0.000         0.000         0.000         0.000
  WSL2034                     39.418         0.000         0.000         0.000         0.000
  WSL2037                     40.702         0.000         0.000         0.000         0.000
  WSL2038                     49.769         0.000         0.000         0.000         0.000
  WSL2039                     55.141         0.000         0.000         0.000         0.000
  WSL2041                     52.813         0.000         0.000         0.000         0.000
  WSL2124                     35.226         0.000         0.000         0.000         0.000
  WSL2126                     36.175         0.000         0.000         0.000         0.000
  WSL2127                     37.692         0.000         0.000         0.000         0.000
  WSL2128                     39.279         0.000         0.000         0.000         0.000
  WSL2130                     46.902         0.000         0.000         0.000         0.000
  WSL2146                     48.359         0.000         0.000         0.000         0.000
  WSL2147                     49.206         0.000         0.000         0.000         0.000
  WSL2148                     50.359         0.000         0.000         0.000         0.000
  WSL2294                    231.976         0.000         0.000         0.000         0.000
  WSL2295                    233.407         0.000         0.000         0.000         0.000
  WSL2296                    243.218         0.000         0.000         0.000         0.000
  WSL2297                    247.567         0.000         0.000         0.000         0.000
  WSL2298                    237.164         0.000         0.000         0.000         0.000
  WSL2301                    249.146         0.000         0.000         0.000         0.000
  WSL2302                    254.777         0.000         0.000         0.000         0.000
  WSL2357                      7.632         0.000         0.000         0.000         0.000
  WSL2358                      9.247         0.000         0.000         0.000         0.000
  WSL2359                     10.245         0.000         0.000         0.000         0.000
  WSL2361                     17.653         0.000         0.000         0.000         0.000
  WSL2362                     19.013         0.000         0.000         0.000         0.000
  WSL2441                    230.335         0.000         0.000         0.000         0.000
  WSL2442                    190.911         0.000         0.000         0.000         0.000
  WSL2443                    189.266         0.000         0.000         0.000         0.000
  WSL2444                    185.873         0.000         0.000         0.000         0.000
  WSL2446                    183.825         0.000         0.000         0.000         0.000
  WSL2447                    180.298         0.000         0.000         0.000         0.000
  WSL2448                    176.517         0.000         0.000         0.000         0.000
  WSL2449                    136.728         0.000         0.000         0.000         0.000
  WSL2450                    134.219         0.000         0.000         0.000         0.000
  WSL2451                    132.897         0.000         0.000         0.000         0.000
  WSL2452                    131.240         0.000         0.000         0.000         0.000
  WSL2454                    126.873         0.000         0.000         0.000         0.000
  WSL2478                    125.080         0.000         0.000         0.000         0.000
  WSL2479                    118.486         0.000         0.000         0.000         0.000
  WSL2480                    115.329         0.000         0.000         0.000         0.000
  WSL2482                    111.105         0.000         0.000         0.000         0.000
  WSL2484                    106.530         0.000         0.000         0.000         0.000
  WSL2493                    193.736         0.000         0.000         0.000         0.000
  WSL2867                    341.378         0.000         0.000         0.000         0.000
  WSL2868                    345.379         0.000         0.000         0.000         0.000
  5                           19.861         0.000         0.000         0.000         0.000
  WSL348                     713.403         0.000         0.000         0.000         0.000
  WSL175                     720.753         0.000         0.000         0.000         0.000
  WSL1467                    677.633         0.000         0.000         0.000         0.000
  WSL1473                    687.689         0.000         0.000         0.000         0.000
  XRpipe                     738.800         0.000         0.000         0.000         0.000
  8                            0.000         0.000         0.000         0.000         0.000
  19                           0.000         0.000         0.000         0.000         0.000
  17                           0.000         0.000         0.000         0.000         0.000
  4                            0.000         0.000         0.000         0.000         0.000
  outletpipe                 396.318         0.000         0.000         0.000         0.000
  11                           0.000         0.000         0.000         0.000         0.000
  20                           0.000         0.000         0.000         0.000         0.000
  1                            0.000         0.000         0.000         0.000         0.000
  28                           0.000         0.000         0.000         0.000         0.000
  30                           0.000         0.000         0.000         0.000         0.000
  2                          855.241         0.000         0.000         0.000         0.000
  XR-Pump-1                   73.575         0.000         0.000         0.000         0.000
  XR-Pump-3                   73.575         0.000         0.000         0.000         0.000
  XR-Pump-2                   73.575         0.000         0.000         0.000         0.000
  XR-Pump-4                   73.575         0.000         0.000         0.000         0.000
  CC-Pump-1                    4.710         0.000         0.000         0.000         0.000
  CC-Pump-2                   43.911         0.000         0.000         0.000         0.000
  JK-Pump-1                    5.051         0.000         0.000         0.000         0.000
  JK-Pump-2                   31.481         0.000         0.000         0.000         0.000
  

  Analysis begun on:  Mon Oct 29 01:07:33 2018
  Analysis ended on:  Mon Oct 29 01:07:37 2018
  Total elapsed time: 00:00:04