
  EPA STORM WATER MANAGEMENT MODEL - VERSION 5.1 (Build 5.2.0.dev1)
  --------------------------------------------------------------

  
  *********************************************************
  NOTE: The summary statistics displayed in this report are
  based on results found at every computational time step,  
  not just on results from each reporting time step.
  *********************************************************
  
  ****************
  Analysis Options
  ****************
  Flow Units ............... MLD
  Process Models:
    Rainfall/Runoff ........ YES
    RDII ................... NO
    Snowmelt ............... NO
    Groundwater ............ NO
    Flow Routing ........... YES
    Ponding Allowed ........ NO
    Water Quality .......... YES
  Infiltration Method ...... GREEN_AMPT
  Flow Routing Method ...... DYNWAVE
  Starting Date ............ 08/28/2015 08:00:00
  Ending Date .............. 08/28/2015 12:00:00
  Antecedent Dry Days ...... 4.0
  Report Time Step ......... 00:01:00
  Wet Time Step ............ 00:01:00
  Dry Time Step ............ 00:01:00
  Routing Time Step ........ 5.00 sec
  Variable Time Step ....... YES
  Maximum Trials ........... 8
  Number of Threads ........ 1
  Head Tolerance ........... 0.001500 m
  
  
  **************************        Volume         Depth
  Runoff Quantity Continuity     hectare-m            mm
  **************************     ---------       -------
  Total Precipitation ......         3.727        11.274
  Evaporation Loss .........         0.000         0.000
  Infiltration Loss ........         1.892         5.723
  Surface Runoff ...........         0.781         2.364
  Final Storage ............         1.055         3.192
  Continuity Error (%) .....        -0.044
  
  
  **************************           COD         NH3-N            TN            TP            SS
  Runoff Quality Continuity             kg            kg            kg            kg            kg
  **************************    ----------    ----------    ----------    ----------    ----------
  Initial Buildup ..........     15404.640         0.000         0.000         0.000         0.000
  Surface Buildup ..........       130.323         0.000         0.000         0.000         0.000
  Wet Deposition ...........         0.000         0.000         0.000         0.000         0.000
  Sweeping Removal .........         0.000         0.000         0.000         0.000         0.000
  Infiltration Loss ........       105.078         0.000         0.000         0.000         0.000
  BMP Removal ..............         0.000         0.000         0.000         0.000         0.000
  Surface Runoff ...........       767.720         0.000         0.000         0.000         0.000
  Remaining Buildup ........     14661.232         0.000         0.000         0.000         0.000
  Continuity Error (%) .....         0.006         0.000         0.000         0.000         0.000
  
  
  **************************        Volume        Volume
  Flow Routing Continuity        hectare-m      10^6 ltr
  **************************     ---------     ---------
  Dry Weather Inflow .......         0.000         0.000
  Wet Weather Inflow .......         0.779         7.793
  Groundwater Inflow .......         0.000         0.000
  RDII Inflow ..............         0.000         0.000
  External Inflow ..........         0.621         6.206
  External Outflow .........         1.314        13.135
  Flooding Loss ............         0.000         0.000
  Evaporation Loss .........         0.000         0.000
  Exfiltration Loss ........         0.000         0.000
  Initial Stored Volume ....         0.000         0.000
  Final Stored Volume ......         0.088         0.875
  Continuity Error (%) .....        -0.080
  
  
  **************************           COD         NH3-N            TN            TP            SS
  Quality Routing Continuity            kg            kg            kg            kg            kg
  **************************    ----------    ----------    ----------    ----------    ----------
  Dry Weather Inflow .......         0.000         0.000         0.000         0.000         0.000
  Wet Weather Inflow .......       766.117         0.000         0.000         0.000         0.000
  Groundwater Inflow .......         0.000         0.000         0.000         0.000         0.000
  RDII Inflow ..............         0.000         0.000         0.000         0.000         0.000
  External Inflow ..........      1036.453         0.000         0.000         0.000         0.000
  External Outflow .........      1671.921         0.000         0.000         0.000         0.000
  Flooding Loss ............         0.000         0.000         0.000         0.000         0.000
  Exfiltration Loss ........         0.000         0.000         0.000         0.000         0.000
  Mass Reacted .............         0.000         0.000         0.000         0.000         0.000
  Initial Stored Mass ......         0.000         0.000         0.000         0.000         0.000
  Final Stored Mass ........        95.537         0.000         0.000         0.000         0.000
  Continuity Error (%) .....         1.948         0.000         0.000         0.000         0.000
  
  
  *************************
  Highest Continuity Errors
  *************************
  Node WS02003123 (3.76%)
  Node WS02003099 (1.29%)
  Node WS02003094 (1.06%)
  
  
  ***************************
  Time-Step Critical Elements
  ***************************
  Link outletpipe (91.20%)
  Link WSL2448 (7.33%)
  
  
  ********************************
  Highest Flow Instability Indexes
  ********************************
  Link WSL1477 (39)
  Link WSL1516 (37)
  Link WSL84 (12)
  Link WSL1515 (7)
  Link WSL2867 (5)
  
  
  *************************
  Routing Time Step Summary
  *************************
  Minimum Time Step           :     0.33 sec
  Average Time Step           :     0.75 sec
  Maximum Time Step           :     5.00 sec
  Percent in Steady State     :     0.00
  Average Iterations per Step :     2.30
  Percent Not Converging      :     4.29
  
  
  ***************************
  Subcatchment Runoff Summary
  ***************************
  
  --------------------------------------------------------------------------------------------------------
                            Total      Total      Total      Total      Total       Total     Peak  Runoff
                           Precip      Runon       Evap      Infil     Runoff      Runoff   Runoff   Coeff
  Subcatchment                 mm         mm         mm         mm         mm    10^6 ltr      MLD
  --------------------------------------------------------------------------------------------------------
  1                         11.27       9.42       0.00       7.57       7.64        0.09     1.79   0.369
  2                         11.27       0.00       0.00       6.31       3.09        0.10     2.14   0.274
  3                         11.27       0.00       0.00       6.33       2.97        0.15     3.07   0.263
  4                         11.27       0.00       0.00       6.30       3.16        0.08     1.74   0.280
  5                         11.27       7.68       0.00       7.48       6.63        0.11     2.23   0.350
  6                         11.27       0.00       0.00       6.33       2.98        0.15     2.99   0.264
  7                         11.27       0.00       0.00       4.85       2.59        4.15    71.13   0.230
  8                         11.27       0.00       0.00       6.32       3.02        0.13     2.62   0.268
  9                         11.27       2.97       0.00       6.84       4.10        0.16     3.10   0.288
  10                        11.27       5.46       0.00       7.09       5.38        0.10     1.96   0.322
  11                        11.27       0.00       0.00       6.29       3.25        0.06     1.35   0.288
  13                        11.27      52.16       0.00       9.59      42.02        0.07     1.18   0.662
  14                        11.27      50.92       0.00      10.03      41.95        0.08     1.59   0.674
  16                        11.27       9.96       0.00       7.25       7.97        0.05     0.97   0.375
  17                        11.27       0.00       0.00       6.32       3.06        0.11     2.31   0.272
  18                        11.27       0.00       0.00       6.32       3.01        0.13     2.67   0.267
  19                        11.27       0.00       0.00       6.30       3.17        0.08     1.67   0.281
  20                        11.27       2.86       0.00       6.81       4.21        0.12     2.38   0.298
  21                        11.27       7.73       0.00       7.43       6.67        0.10     2.00   0.351
  22                        11.27       5.86       0.00       7.25       5.77        0.10     2.05   0.337
  23                        11.27       0.00       0.00       6.23       3.60        0.03     0.55   0.319
  24                        11.27       0.00       0.00       6.29       3.22        0.07     1.47   0.285
  25                        11.27       0.00       0.00       6.26       3.43        0.04     0.84   0.304
  26                        11.27       0.00       0.00       6.29       3.24        0.06     1.36   0.288
  27                        11.27       0.00       0.00       6.29       3.25        0.06     1.33   0.288
  28                        11.27       8.76       0.00       7.59       6.56        0.17     3.30   0.327
  29                        11.27       3.63       0.00       6.84       4.48        0.11     2.15   0.300
  30                        11.27      11.71       0.00       7.91       9.45        0.09     1.73   0.411
  31                        11.27       0.00       0.00       6.31       3.07        0.11     2.24   0.272
  32                        11.27       0.00       0.00       6.33       2.97        0.15     3.08   0.263
  33                        11.27       0.00       0.00       6.24       3.52        0.03     0.67   0.312
  34                        11.27       6.55       0.00       7.36       5.95        0.12     2.45   0.334
  35                        11.27       0.00       0.00       6.31       3.12        0.09     1.95   0.277
  36                        11.27       5.84       0.00       7.30       4.89        0.29     5.56   0.285
  37                        11.27       0.00       0.00       6.32       3.00        0.14     2.76   0.266
  38                        11.27       0.00       0.00       6.31       3.13        0.09     1.90   0.277
  39                        11.27       0.00       0.00       6.31       3.08        0.11     2.16   0.274
  40                        11.27       1.61       0.00       6.61       3.60        0.14     2.85   0.279
  41                        11.27       0.00       0.00       6.29       3.25        0.06     1.33   0.289
  42                        11.27       0.00       0.00       6.30       3.20        0.07     1.53   0.284
  43                        11.27       0.00       0.00       6.18       3.86        0.01     0.32   0.342
  44                        11.27      81.38       0.00      11.84      63.77        0.24     4.28   0.688
  45                        11.27       0.00       0.00       6.26       3.46        0.04     0.77   0.307
  46                        11.27       4.83       0.00       7.09       5.14        0.11     2.21   0.319
  47                        11.27       0.00       0.00       6.26       3.43        0.04     0.82   0.305
  48                        11.27       2.41       0.00       6.70       4.31        0.07     1.41   0.315
  49                        11.27       0.00       0.00       6.29       3.22        0.07     1.45   0.286
  50                        11.27       3.91       0.00       6.95       4.89        0.09     1.76   0.322
  51                        11.27       3.23       0.00       6.85       4.49        0.10     1.95   0.310
  52                        11.27       0.00       0.00       6.29       3.22        0.07     1.45   0.286
  53                        11.27       1.67       0.00       6.58       3.94        0.07     1.44   0.305
  54                        11.27       0.00       0.00       6.24       3.54        0.03     0.64   0.314
  55                        11.27       3.57       0.00       6.83       5.21        0.04     0.91   0.351
  56                        11.27       5.34       0.00       7.15       5.34        0.11     2.28   0.322
  57                        11.27       0.00       0.00       6.33       2.97        0.15     3.02   0.264
  58                        11.27       0.00       0.00       6.26       3.46        0.04     0.78   0.307
  59                        11.27       0.00       0.00       6.24       3.53        0.03     0.65   0.313
  60                        11.27       7.86       0.00       7.35       7.97        0.04     0.86   0.417
  61                        11.27       0.00       0.00       6.36       2.60        0.47     9.19   0.231
  62                        11.27       0.00       0.00       6.36       2.58        0.49     9.63   0.229
  63                        11.27       0.00       0.00       6.25       3.48        0.03     0.73   0.309
  64                        11.27       0.00       0.00       6.26       3.41        0.04     0.88   0.302
  65                        11.27       0.00       0.00       6.28       3.29        0.06     1.20   0.292
  
  
  ****************************
  Subcatchment Washoff Summary
  ****************************
  
  ------------------------------------------------------------------------------------------
                                 COD         NH3-N            TN            TP            SS
  Subcatchment                    kg            kg            kg            kg            kg
  ------------------------------------------------------------------------------------------
  1                            7.355         0.000         0.000         0.000         0.000
  2                            0.000         0.000         0.000         0.000         0.000
  3                            0.000         0.000         0.000         0.000         0.000
  4                            7.981         0.000         0.000         0.000         0.000
  5                           23.173         0.000         0.000         0.000         0.000
  6                           13.256         0.000         0.000         0.000         0.000
  7                          344.470         0.000         0.000         0.000         0.000
  8                           11.698         0.000         0.000         0.000         0.000
  9                           21.014         0.000         0.000         0.000         0.000
  10                          20.570         0.000         0.000         0.000         0.000
  11                           6.267         0.000         0.000         0.000         0.000
  13                          23.587         0.000         0.000         0.000         0.000
  14                          22.808         0.000         0.000         0.000         0.000
  16                          19.382         0.000         0.000         0.000         0.000
  17                          10.393         0.000         0.000         0.000         0.000
  18                          11.923         0.000         0.000         0.000         0.000
  19                           7.660         0.000         0.000         0.000         0.000
  20                          16.252         0.000         0.000         0.000         0.000
  21                          22.575         0.000         0.000         0.000         0.000
  22                          19.021         0.000         0.000         0.000         0.000
  23                           2.702         0.000         0.000         0.000         0.000
  24                           6.806         0.000         0.000         0.000         0.000
  25                           3.999         0.000         0.000         0.000         0.000
  26                           6.319         0.000         0.000         0.000         0.000
  27                           6.189         0.000         0.000         0.000         0.000
  28                          41.501         0.000         0.000         0.000         0.000
  29                          19.262         0.000         0.000         0.000         0.000
  30                          22.649         0.000         0.000         0.000         0.000
  31                          10.113         0.000         0.000         0.000         0.000
  32                          13.650         0.000         0.000         0.000         0.000
  33                           3.216         0.000         0.000         0.000         0.000
  34                          23.536         0.000         0.000         0.000         0.000
  35                           8.880         0.000         0.000         0.000         0.000
  36                          50.680         0.000         0.000         0.000         0.000
  37                          12.282         0.000         0.000         0.000         0.000
  38                           8.639         0.000         0.000         0.000         0.000
  39                           9.785         0.000         0.000         0.000         0.000
  40                          16.470         0.000         0.000         0.000         0.000
  41                           6.164         0.000         0.000         0.000         0.000
  42                           7.034         0.000         0.000         0.000         0.000
  43                           1.597         0.000         0.000         0.000         0.000
  44                          54.314         0.000         0.000         0.000         0.000
  45                           3.684         0.000         0.000         0.000         0.000
  46                          19.316         0.000         0.000         0.000         0.000
  47                           3.913         0.000         0.000         0.000         0.000
  48                           9.467         0.000         0.000         0.000         0.000
  49                           6.704         0.000         0.000         0.000         0.000
  50                          13.721         0.000         0.000         0.000         0.000
  51                          14.096         0.000         0.000         0.000         0.000
  52                           6.704         0.000         0.000         0.000         0.000
  53                           8.788         0.000         0.000         0.000         0.000
  54                           3.096         0.000         0.000         0.000         0.000
  55                           7.208         0.000         0.000         0.000         0.000
  56                          21.398         0.000         0.000         0.000         0.000
  57                          13.388         0.000         0.000         0.000         0.000
  58                           3.713         0.000         0.000         0.000         0.000
  59                           3.126         0.000         0.000         0.000         0.000
  60                           9.700         0.000         0.000         0.000         0.000
  61                          37.414         0.000         0.000         0.000         0.000
  62                          39.019         0.000         0.000         0.000         0.000
  63                           3.510         0.000         0.000         0.000         0.000
  64                           4.168         0.000         0.000         0.000         0.000
  65                           5.613         0.000         0.000         0.000         0.000
  ------------------------------------------------------------------------------------------
  System                    1182.919         0.000         0.000         0.000         0.000
  
  
  ******************
  Node Depth Summary
  ******************
  
  ---------------------------------------------------------------------------------
                                 Average  Maximum  Maximum  Time of Max    Reported
                                   Depth    Depth      HGL   Occurrence   Max Depth
  Node                 Type       Meters   Meters   Meters  days hr:min      Meters
  ---------------------------------------------------------------------------------
  WS01000070           JUNCTION     0.00     0.00     0.00     0  00:00        0.00
  WS01000323           JUNCTION     0.00     0.00     0.00     0  00:00        0.00
  WS01000533           JUNCTION     0.00     0.00     6.86     0  00:00        0.00
  WS01005172           JUNCTION     0.00     0.00     0.00     0  00:00        0.00
  WS01005181           JUNCTION     0.00     0.00     0.00     0  00:00        0.00
  WS01009841           JUNCTION     0.00     0.00     0.00     0  00:00        0.00
  WS02000078           JUNCTION     0.00     0.00     0.00     0  00:00        0.00
  WS02000112           JUNCTION     0.00     0.00     0.00     0  00:00        0.00
  WS02000136           JUNCTION     0.00     0.00     0.00     0  00:00        0.00
  WS02001211           JUNCTION     0.26     0.45     5.29     0  03:30        0.45
  WS02001212           JUNCTION     0.21     0.40     5.20     0  03:31        0.40
  WS02001213           JUNCTION     0.30     0.51     5.21     0  03:31        0.51
  WS02003059           JUNCTION     0.30     0.51     5.16     0  03:30        0.50
  WS02003060           JUNCTION     0.38     0.60     5.15     0  03:29        0.59
  WS02003066           JUNCTION     0.18     0.29     5.59     0  03:28        0.26
  WS02003067           JUNCTION     0.30     0.47     5.79     0  03:28        0.44
  WS02003071           JUNCTION     0.45     0.66     5.06     0  03:30        0.65
  WS02003072           JUNCTION     0.38     0.57     4.94     0  03:30        0.57
  WS02003073           JUNCTION     0.48     0.67     4.91     0  03:31        0.67
  WS02003076           JUNCTION     0.44     0.64     4.87     0  03:31        0.63
  WS02003077           JUNCTION     0.12     0.18     5.19     0  03:10        0.18
  WS02003078           JUNCTION     0.04     0.06     6.96     0  03:04        0.06
  WS02003079           JUNCTION     0.11     0.18     7.09     0  03:04        0.18
  WS02003080           JUNCTION     0.22     0.31     5.34     0  03:10        0.31
  WS02003081           JUNCTION     0.28     0.40     5.44     0  03:09        0.40
  WS02003082           JUNCTION     0.27     0.41     5.49     0  03:13        0.41
  WS02003083           JUNCTION     0.30     0.46     5.55     0  03:12        0.46
  WS02003084           JUNCTION     0.31     0.48     5.58     0  03:12        0.47
  WS02003085           JUNCTION     0.25     0.41     5.58     0  03:12        0.41
  WS02003086           JUNCTION     0.27     0.43     5.63     0  03:12        0.43
  WS02003087           JUNCTION     0.29     0.45     5.67     0  03:11        0.45
  WS02003088           JUNCTION     0.25     0.41     5.70     0  03:12        0.41
  WS02003089           JUNCTION     0.18     0.30     5.76     0  03:12        0.30
  WS02003090           JUNCTION     0.23     0.36     5.83     0  03:06        0.35
  WS02003091           JUNCTION     0.13     0.22     6.02     0  03:11        0.21
  WS02003092           JUNCTION     0.01     0.01     7.65     0  01:39        0.01
  WS02003093           JUNCTION     0.02     0.04     7.38     0  03:02        0.04
  WS02003094           JUNCTION     0.10     0.16     7.38     0  03:01        0.16
  WS02003098           JUNCTION     0.06     0.10     7.27     0  03:02        0.10
  WS02003099           JUNCTION     0.13     0.20     7.24     0  03:03        0.20
  WS02003102           JUNCTION     0.11     0.18     7.21     0  03:01        0.18
  WS02003103           JUNCTION     0.13     0.21     7.18     0  03:03        0.21
  WS02003104           JUNCTION     0.13     0.20     7.16     0  03:03        0.20
  WS02003106           JUNCTION     0.13     0.20     7.13     0  03:03        0.20
  WS02003110           JUNCTION     0.13     0.20     7.45     0  03:05        0.20
  WS02003111           JUNCTION     0.12     0.19     7.28     0  03:03        0.19
  WS02003115           JUNCTION     0.15     0.24     7.14     0  03:05        0.24
  WS02003116           JUNCTION     0.18     0.29     7.00     0  03:04        0.29
  WS02003118           JUNCTION     0.16     0.25     6.87     0  03:02        0.25
  WS02003122           JUNCTION     0.25     0.42     6.79     0  03:06        0.42
  WS02003123           JUNCTION     0.18     0.35     6.79     0  03:07        0.35
  WS02003126           JUNCTION     0.11     0.27     6.79     0  03:07        0.27
  WS02003187           JUNCTION     0.26     0.45     6.78     0  03:06        0.45
  WS02003188           JUNCTION     0.32     0.50     6.76     0  03:07        0.50
  WS02003190           JUNCTION     0.31     0.49     6.74     0  03:07        0.49
  WS02003193           JUNCTION     0.30     0.47     6.71     0  03:07        0.47
  WS02003195           JUNCTION     0.29     0.45     6.67     0  03:07        0.45
  WS02003196           JUNCTION     0.31     0.46     6.64     0  03:06        0.46
  WS02003198           JUNCTION     0.29     0.44     6.61     0  03:06        0.44
  WS02003200           JUNCTION     0.20     0.31     6.47     0  03:08        0.31
  WS02003201           JUNCTION     0.19     0.30     6.44     0  03:05        0.30
  WS02003202           JUNCTION     0.20     0.33     6.39     0  03:09        0.32
  WS02003203           JUNCTION     0.13     0.21     6.21     0  03:05        0.20
  WS02003215           JUNCTION     0.14     0.22     7.08     0  03:04        0.22
  WS02004050           JUNCTION     0.30     0.42     4.64     0  03:31        0.42
  WS02004053           JUNCTION     0.00     0.00     0.00     0  00:00        0.00
  WS02004136           JUNCTION     0.10     0.18     6.91     0  01:20        0.18
  WS02004139           JUNCTION     0.20     0.37     5.33     0  03:30        0.37
  WS02004401           JUNCTION     0.31     0.49     6.49     0  03:25        0.49
  WS02004402           JUNCTION     0.32     0.50     6.46     0  03:25        0.50
  WS02004403           JUNCTION     0.30     0.49     6.42     0  03:25        0.49
  WS02004404           JUNCTION     0.39     0.58     6.43     0  03:26        0.58
  WS02004405           JUNCTION     0.39     0.57     6.41     0  03:26        0.57
  WS02004406           JUNCTION     0.37     0.54     6.37     0  03:26        0.54
  WS02004407           JUNCTION     0.35     0.51     6.31     0  03:26        0.51
  WS02004409           JUNCTION     0.33     0.50     6.27     0  03:26        0.49
  WS02004410           JUNCTION     0.33     0.48     6.20     0  03:27        0.48
  WS02004411           JUNCTION     0.30     0.44     6.12     0  03:27        0.44
  WS02004412           JUNCTION     0.25     0.38     6.02     0  03:27        0.38
  WS02004413           JUNCTION     0.26     0.40     5.87     0  03:28        0.40
  WS02004997           JUNCTION     6.05     6.47     8.08     0  03:00        6.42
  WS02005122           JUNCTION     0.07     0.12     9.64     0  03:01        0.12
  WS02005123           JUNCTION     0.06     0.10     9.56     0  03:01        0.10
  WS02005124           JUNCTION     0.06     0.09     9.36     0  03:01        0.09
  WS02005126           JUNCTION     0.10     0.16     9.26     0  03:01        0.16
  WS02005127           JUNCTION     0.09     0.14     9.17     0  03:01        0.14
  WS02005129           JUNCTION     0.09     0.15     9.08     0  03:01        0.15
  WS02005131           JUNCTION     0.10     0.17     8.93     0  03:02        0.17
  WS02005132           JUNCTION     0.13     0.21     8.85     0  03:02        0.21
  WS02005133           JUNCTION     0.12     0.20     8.81     0  03:02        0.20
  WS02005135           JUNCTION     0.11     0.19     8.75     0  03:01        0.19
  WS02005137           JUNCTION     0.14     0.24     8.66     0  03:02        0.24
  WS02005138           JUNCTION     0.15     0.24     8.59     0  03:02        0.24
  WS02005140           JUNCTION     0.12     0.19     8.51     0  03:03        0.19
  WS02005142           JUNCTION     0.15     0.24     8.40     0  03:01        0.24
  WS02005144           JUNCTION     0.14     0.23     8.28     0  03:02        0.23
  WS02005145           JUNCTION     0.18     0.27     8.17     0  03:03        0.27
  WS02005147           JUNCTION     0.14     0.22     8.09     0  03:04        0.22
  WS02005152           JUNCTION     0.15     0.24     7.96     0  03:04        0.24
  WS02005154           JUNCTION     0.11     0.18     7.82     0  03:02        0.18
  WS02005155           JUNCTION     0.16     0.25     7.56     0  03:05        0.25
  WS02005162           JUNCTION     0.12     0.18     8.18     0  03:02        0.18
  WS02005163           JUNCTION     0.13     0.18     8.22     0  03:02        0.18
  WS02005164           JUNCTION     0.12     0.18     8.26     0  03:02        0.18
  WS02005165           JUNCTION     0.10     0.14     8.32     0  03:03        0.14
  WS02005166           JUNCTION     0.10     0.14     8.41     0  03:02        0.14
  WS02005167           JUNCTION     0.12     0.17     8.47     0  03:01        0.17
  WS02005170           JUNCTION     0.08     0.12     8.52     0  03:02        0.12
  WS02005171           JUNCTION     0.09     0.13     8.60     0  03:01        0.13
  WS02005175           JUNCTION     0.09     0.13     8.70     0  03:01        0.13
  WS02005176           JUNCTION     0.08     0.11     8.73     0  03:03        0.11
  WS02005180           JUNCTION     0.09     0.13     8.78     0  03:03        0.13
  WS02005181           JUNCTION     0.08     0.11     8.81     0  03:02        0.11
  WS02005183           JUNCTION     0.05     0.08     8.94     0  03:02        0.08
  WS02005184           JUNCTION     0.06     0.09     9.00     0  03:01        0.09
  WS02005185           JUNCTION     0.05     0.08     9.10     0  03:01        0.08
  WS02005186           JUNCTION     0.05     0.09     9.20     0  03:01        0.08
  WS02005188           JUNCTION     0.13     0.19     8.13     0  02:57        0.19
  WS02005191           JUNCTION     0.17     0.23     8.13     0  02:57        0.23
  WS02005192           JUNCTION     0.18     0.25     8.12     0  02:28        0.25
  WS02005193           JUNCTION     0.18     0.29     8.11     0  02:27        0.29
  WS02005196           JUNCTION     0.18     0.27     8.12     0  02:27        0.27
  WS02006109           JUNCTION     0.37     0.58     7.20     0  03:22        0.57
  WS02006110           JUNCTION     0.34     0.52     7.12     0  03:22        0.52
  WS02006111           JUNCTION     0.17     0.29     6.87     0  03:23        0.29
  WS02006112           JUNCTION     0.34     0.52     6.64     0  03:23        0.52
  WS02006113           JUNCTION     0.29     0.46     7.05     0  03:25        0.43
  WS02006115           JUNCTION     0.29     0.47     6.57     0  03:24        0.47
  WS02006116           JUNCTION     0.32     0.50     6.54     0  03:24        0.50
  WS02006183           JUNCTION     0.00     0.00     0.00     0  00:00        0.00
  WS02006228           JUNCTION     0.37     0.59     7.24     0  03:22        0.59
  WS02006229           JUNCTION     0.34     0.57     7.26     0  03:22        0.57
  WS02006230           JUNCTION     0.32     0.56     7.31     0  03:21        0.56
  WS02006231           JUNCTION     0.24     0.45     7.35     0  03:21        0.45
  WS02006232           JUNCTION     0.23     0.42     7.45     0  03:20        0.42
  WS02006234           JUNCTION     0.23     0.42     7.58     0  03:20        0.41
  WS02006235           JUNCTION     0.28     0.48     7.65     0  03:20        0.48
  WS02006238           JUNCTION     0.28     0.49     7.67     0  03:20        0.49
  WS02006239           JUNCTION     0.29     0.47     7.68     0  03:20        0.46
  WS02006242           JUNCTION     0.29     0.45     7.75     0  02:28        0.45
  WS02006240           JUNCTION     0.24     0.39     7.68     0  03:20        0.39
  WS02006243           JUNCTION     0.22     0.37     7.79     0  02:28        0.37
  WS02006245           JUNCTION     0.23     0.37     7.86     0  02:28        0.37
  WS02006247           JUNCTION     0.25     0.40     7.91     0  02:27        0.40
  WS02006248           JUNCTION     0.21     0.36     7.95     0  02:27        0.36
  WS02006249           JUNCTION     0.24     0.39     7.99     0  02:27        0.39
  WS02006251           JUNCTION     0.23     0.39     8.06     0  02:27        0.39
  WS02006253           JUNCTION     0.17     0.30     8.10     0  02:27        0.30
  WS02618401           JUNCTION     0.00     0.00     0.00     0  00:00        0.00
  WS8802               JUNCTION     0.00     0.00     4.38     0  00:00        0.00
  WSA1649              JUNCTION     0.00     0.00     0.00     0  00:00        0.00
  WSF200               JUNCTION     0.17     0.27     5.37     0  03:28        0.27
  XR-Inflow            JUNCTION     5.91     6.42     8.23     0  03:00        6.35
  WS02004114           JUNCTION     6.02     6.35     7.95     0  03:00        6.35
  outfall-24           OUTFALL      0.12     0.18     5.68     0  03:10        0.18
  outfall-2            OUTFALL      0.00     0.00     7.00     0  00:00        0.00
  outfall-5            OUTFALL      0.00     0.00     7.67     0  00:00        0.00
  outfall-8            OUTFALL      0.00     0.00     8.00     0  00:00        0.00
  outfall-14           OUTFALL      0.00     0.00     7.66     0  00:00        0.00
  outfall-16           OUTFALL      0.00     0.00     8.39     0  00:00        0.00
  outfall-17           OUTFALL      0.00     0.00     8.15     0  00:00        0.00
  outfall-27           OUTFALL      0.01     0.09     7.99     0  03:24        0.09
  outfall-28           OUTFALL      0.02     0.15     7.45     0  03:01        0.15
  67                   OUTFALL      0.00     0.00    10.20     0  00:00        0.00
  12                   OUTFALL      0.30     0.41     0.41     0  03:32        0.41
  XR-storage           STORAGE      7.10     7.41     7.91     0  03:10        7.41
  CC-storage           STORAGE      1.85     5.22     8.40     0  03:24        5.22
  JK-storage           STORAGE      1.78     4.55     7.55     0  03:01        4.55
  
  
  *******************
  Node Inflow Summary
  *******************
  
  -------------------------------------------------------------------------------------------------
                                  Maximum  Maximum                  Lateral       Total        Flow
                                  Lateral    Total  Time of Max      Inflow      Inflow     Balance
                                   Inflow   Inflow   Occurrence      Volume      Volume       Error
  Node                 Type           MLD      MLD  days hr:min    10^6 ltr    10^6 ltr     Percent
  -------------------------------------------------------------------------------------------------
  WS01000070           JUNCTION      0.00     0.00     0  00:00           0           0       0.000 ltr
  WS01000323           JUNCTION      0.00     0.00     0  00:00           0           0       0.000 ltr
  WS01000533           JUNCTION      0.00     0.00     0  00:00           0           0       0.000 ltr
  WS01005172           JUNCTION      0.00     0.00     0  00:00           0           0       0.000 ltr
  WS01005181           JUNCTION      0.00     0.00     0  00:00           0           0       0.000 ltr
  WS01009841           JUNCTION      0.00     0.00     0  00:00           0           0       0.000 ltr
  WS02000078           JUNCTION      0.00     0.00     0  00:00           0           0       0.000 ltr
  WS02000112           JUNCTION      0.00     0.00     0  00:00           0           0       0.000 ltr
  WS02000136           JUNCTION      0.00     0.00     0  00:00           0           0       0.000 ltr
  WS02001211           JUNCTION      0.25    33.60     0  01:21      0.0407        2.88       0.111
  WS02001212           JUNCTION      0.21    33.77     0  01:27      0.0346        2.91       0.079
  WS02001213           JUNCTION      0.30    34.07     0  01:28      0.0489        2.96       0.157
  WS02003059           JUNCTION      0.23    34.42     0  03:32      0.0378        2.99       0.348
  WS02003060           JUNCTION      0.16    86.97     0  03:29      0.0252        6.45       0.324
  WS02003066           JUNCTION      0.08    60.57     0  03:28      0.0122        3.43       0.112
  WS02003067           JUNCTION      0.26    49.10     0  03:28      0.0395        3.43       0.228
  WS02003071           JUNCTION      0.35    82.57     0  03:29      0.0538        6.49       0.373
  WS02003072           JUNCTION      0.24    82.09     0  03:30      0.0382         6.5       0.226
  WS02003073           JUNCTION      0.07    97.94     0  03:30     0.00978        8.03       0.227
  WS02003076           JUNCTION      0.72    99.55     0  03:31        0.12        8.13       0.190
  WS02003077           JUNCTION      0.04    23.65     0  03:10      0.0059        1.54       0.150
  WS02003078           JUNCTION      0.03     6.44     0  03:04     0.00419       0.333      -0.005
  WS02003079           JUNCTION      0.04     5.62     0  03:03     0.00561        0.33       0.248
  WS02003080           JUNCTION      0.08    18.52     0  03:13      0.0113         1.2       0.350
  WS02003081           JUNCTION      0.03    18.49     0  03:13     0.00406         1.2       0.462
  WS02003082           JUNCTION      0.05    18.53     0  03:12     0.00692         1.2       0.454
  WS02003083           JUNCTION      0.02    18.56     0  03:12      0.0027        1.19       0.461
  WS02003084           JUNCTION      0.06    18.54     0  03:12     0.00885         1.2       0.316
  WS02003085           JUNCTION      0.02    18.54     0  03:12     0.00307        1.19       0.260
  WS02003086           JUNCTION      0.04    18.64     0  03:11     0.00599        1.19       0.355
  WS02003087           JUNCTION      0.06    18.69     0  03:07     0.00824        1.19       0.388
  WS02003088           JUNCTION      0.07    18.93     0  03:07      0.0105        1.19       0.313
  WS02003089           JUNCTION      0.08    19.49     0  03:06      0.0113        1.18       0.191
  WS02003090           JUNCTION      0.04    19.45     0  03:06     0.00647        1.17       0.192
  WS02003091           JUNCTION      0.01    19.17     0  03:06     0.00171        1.16       0.079
  WS02003092           JUNCTION      0.07     0.07     0  01:00     0.00989     0.00989       0.388
  WS02003093           JUNCTION      0.02     0.09     0  01:24     0.00306      0.0129       1.002
  WS02003094           JUNCTION      3.15     3.19     0  03:01       0.164       0.177       1.071
  WS02003098           JUNCTION      0.02     3.15     0  03:01     0.00293       0.178       0.609
  WS02003099           JUNCTION      0.07     3.19     0  03:02      0.0109       0.188       1.302
  WS02003102           JUNCTION      2.64     5.64     0  03:01       0.132       0.318       0.610
  WS02003103           JUNCTION      0.02     5.59     0  03:01     0.00239       0.318       0.454
  WS02003104           JUNCTION      0.02     5.58     0  03:02     0.00302        0.32       0.381
  WS02003106           JUNCTION      0.05     5.60     0  03:03     0.00727       0.326       0.473
  WS02003110           JUNCTION      0.06    13.45     0  03:04     0.00906       0.779       0.106
  WS02003111           JUNCTION      0.02    12.92     0  03:05      0.0029       0.781       0.104
  WS02003115           JUNCTION      0.61    13.36     0  03:03      0.0362       0.816       0.103
  WS02003116           JUNCTION      0.08    13.47     0  03:05      0.0118       0.836       0.216
  WS02003118           JUNCTION      1.52    14.67     0  03:02      0.0797       0.914       0.265
  WS02003122           JUNCTION      0.07    14.70     0  03:02      0.0101       0.939       0.416
  WS02003123           JUNCTION      0.06     0.36     0  01:19      0.0093      0.0181       3.905
  WS02003126           JUNCTION      0.03     0.08     0  03:01     0.00529     0.00571       1.687
  WS02003187           JUNCTION      0.06    14.65     0  03:06     0.00906       0.941       0.392
  WS02003188           JUNCTION      1.00    15.46     0  03:06      0.0574       0.994       0.575
  WS02003190           JUNCTION      0.06    15.50     0  03:07     0.00956       0.998       0.540
  WS02003193           JUNCTION      1.37    16.45     0  03:04      0.0671        1.06       0.534
  WS02003195           JUNCTION      0.03    16.44     0  03:05      0.0053        1.06       0.544
  WS02003196           JUNCTION      0.02    16.47     0  03:08     0.00301        1.06       0.560
  WS02003198           JUNCTION      1.98    18.04     0  03:05       0.103        1.15       0.641
  WS02003200           JUNCTION      0.07    18.08     0  03:07      0.0107        1.16       0.290
  WS02003201           JUNCTION      0.01    18.33     0  03:06     0.00183        1.16       0.112
  WS02003202           JUNCTION      0.02    18.31     0  03:06      0.0031        1.16       0.228
  WS02003203           JUNCTION      0.05    20.31     0  03:09     0.00692        1.16       0.076
  WS02003215           JUNCTION      0.06    13.39     0  03:05     0.00945       0.825       0.089
  WS02004050           JUNCTION      0.72   117.89     0  03:31       0.119        8.23       0.431
  WS02004053           JUNCTION      0.00     0.00     0  00:00           0           0       0.000 ltr
  WS02004136           JUNCTION      0.44    32.92     0  01:20      0.0703        2.78      -0.023
  WS02004139           JUNCTION      0.38    33.30     0  01:20      0.0619        2.84       0.016
  WS02004401           JUNCTION      0.05    43.73     0  03:24     0.00897        2.69       0.245
  WS02004402           JUNCTION      0.22    43.71     0  03:24      0.0335        2.72       0.226
  WS02004403           JUNCTION      0.23    43.71     0  03:25      0.0349        2.74       0.195
  WS02004404           JUNCTION      0.24    43.66     0  03:25      0.0365        2.78       0.192
  WS02004405           JUNCTION      1.81    44.10     0  03:25      0.0954        2.87       0.280
  WS02004406           JUNCTION      3.41    45.86     0  03:25       0.194        3.05       0.400
  WS02004407           JUNCTION      0.11    45.82     0  03:26      0.0171        3.06       0.360
  WS02004409           JUNCTION      2.41    46.98     0  03:26       0.147        3.19       0.307
  WS02004410           JUNCTION      0.15    47.14     0  03:27      0.0226        3.21       0.314
  WS02004411           JUNCTION      0.25    47.45     0  03:27      0.0379        3.23       0.274
  WS02004412           JUNCTION      3.07    48.60     0  03:27       0.162        3.39       0.214
  WS02004413           JUNCTION      0.11    48.83     0  03:27      0.0172         3.4       0.203
  WS02004997           JUNCTION      0.42    89.10     0  03:01      0.0693        7.52       0.531
  WS02005122           JUNCTION      2.01     2.01     0  03:01       0.105       0.105       0.153
  WS02005123           JUNCTION      0.06     2.06     0  03:01     0.00977       0.115       0.208
  WS02005124           JUNCTION      0.04     2.09     0  03:01     0.00611       0.121       0.306
  WS02005126           JUNCTION      1.82     3.87     0  03:01      0.0962       0.217       0.395
  WS02005127           JUNCTION      0.05     3.90     0  03:01     0.00848       0.224       0.341
  WS02005129           JUNCTION      1.93     5.76     0  03:01      0.0975       0.321       0.249
  WS02005131           JUNCTION      0.04     5.79     0  03:01     0.00682       0.327       0.333
  WS02005132           JUNCTION      0.05     5.82     0  03:02     0.00808       0.334       0.459
  WS02005133           JUNCTION      0.06     5.86     0  03:02        0.01       0.343       0.386
  WS02005135           JUNCTION      2.81     8.45     0  03:01       0.145       0.486       0.226
  WS02005137           JUNCTION      0.04     8.47     0  03:01     0.00625       0.491       0.343
  WS02005138           JUNCTION      0.06     8.52     0  03:02      0.0101         0.5       0.401
  WS02005140           JUNCTION      0.06     8.57     0  03:03        0.01       0.508       0.244
  WS02005142           JUNCTION      3.13    11.39     0  03:01        0.16       0.666       0.257
  WS02005144           JUNCTION      0.06    11.45     0  03:01     0.00927       0.674       0.253
  WS02005145           JUNCTION      0.04    11.49     0  03:02     0.00618       0.678       0.341
  WS02005147           JUNCTION      0.05    11.52     0  03:02     0.00749       0.683       0.223
  WS02005152           JUNCTION      0.06    11.59     0  03:03     0.00981       0.692       0.258
  WS02005154           JUNCTION      1.38    13.31     0  03:04      0.0726       0.762       0.141
  WS02005155           JUNCTION      0.06    13.02     0  03:03        0.01       0.771       0.186
  WS02005162           JUNCTION      0.08     4.81     0  03:02      0.0127       0.368       0.341
  WS02005163           JUNCTION      0.13     4.75     0  03:02        0.02       0.356       0.348
  WS02005164           JUNCTION      0.82     4.65     0  03:01      0.0433       0.337       0.346
  WS02005165           JUNCTION      0.11     3.93     0  03:02      0.0168       0.295       0.305
  WS02005166           JUNCTION      0.11     3.85     0  03:02      0.0167       0.279       0.323
  WS02005167           JUNCTION      0.78     3.77     0  03:01       0.043       0.264       0.461
  WS02005170           JUNCTION      0.09     3.05     0  03:01       0.013       0.221       0.349
  WS02005171           JUNCTION      0.02     2.99     0  03:01     0.00326       0.209       0.367
  WS02005175           JUNCTION      1.22     2.98     0  03:01      0.0597       0.206       0.302
  WS02005176           JUNCTION      0.08     1.83     0  03:03      0.0123       0.147       0.440
  WS02005180           JUNCTION      0.11     1.77     0  03:02      0.0172       0.136       0.612
  WS02005181           JUNCTION      0.13     1.69     0  03:02      0.0203       0.119       0.467
  WS02005183           JUNCTION      0.03     1.59     0  03:01     0.00433      0.0992       0.274
  WS02005184           JUNCTION      0.09     1.57     0  03:01       0.013      0.0952       0.295
  WS02005185           JUNCTION      0.07     1.51     0  03:01      0.0111      0.0823       0.215
  WS02005186           JUNCTION      1.46     1.46     0  03:01      0.0713      0.0713       0.139
  WS02005188           JUNCTION      0.03     4.85     0  03:03     0.00497       0.371       0.242
  WS02005191           JUNCTION      0.06     4.92     0  03:04     0.00844       0.379       0.331
  WS02005192           JUNCTION      3.11     7.92     0  03:01       0.166       0.544       0.281
  WS02005193           JUNCTION      0.09     8.17     0  03:00      0.0146       0.574       0.227
  WS02005196           JUNCTION      0.12     8.07     0  03:01       0.019       0.561       0.265
  WS02006109           JUNCTION      0.08    41.94     0  03:22      0.0135        2.42       0.309
  WS02006110           JUNCTION      0.08    41.96     0  03:22      0.0132        2.42       0.295
  WS02006111           JUNCTION      0.24    43.70     0  03:23      0.0366        2.63       0.088
  WS02006112           JUNCTION      0.18    43.90     0  03:23      0.0273        2.65       0.256
  WS02006113           JUNCTION      3.22    43.38     0  03:22       0.178        2.59       0.216
  WS02006115           JUNCTION      0.08    43.86     0  03:23      0.0134        2.66       0.253
  WS02006116           JUNCTION      0.24    43.85     0  03:24       0.036        2.69       0.252
  WS02006183           JUNCTION      0.00     0.00     0  00:00           0           0       0.000 ltr
  WS02006228           JUNCTION      4.43    41.99     0  03:21       0.264        2.41       0.219
  WS02006229           JUNCTION      0.13    38.49     0  03:21        0.02        2.15       0.190
  WS02006230           JUNCTION      0.07    38.60     0  03:21      0.0116        2.13       0.174
  WS02006231           JUNCTION      0.13    38.70     0  03:20      0.0205        2.12       0.099
  WS02006232           JUNCTION      2.22    38.66     0  03:20       0.118        2.11       0.103
  WS02006234           JUNCTION      0.14    37.79     0  03:20      0.0216        1.99       0.105
  WS02006235           JUNCTION      0.14    37.70     0  03:20      0.0223        1.97       0.079
  WS02006238           JUNCTION      0.15    37.83     0  03:20      0.0235        1.95       0.103
  WS02006239           JUNCTION      0.11    24.50     0  02:29      0.0174        1.49       0.215
  WS02006242           JUNCTION      0.08    24.41     0  02:28      0.0129        1.47       0.271
  WS02006240           JUNCTION      0.06    24.43     0  02:28     0.00992        1.47       0.172
  WS02006243           JUNCTION      0.17    24.36     0  02:28      0.0269        1.46       0.160
  WS02006245           JUNCTION      0.07    24.22     0  02:28      0.0113        1.43       0.140
  WS02006247           JUNCTION      1.93    24.18     0  02:27       0.117        1.42       0.144
  WS02006248           JUNCTION      0.12    23.19     0  02:27      0.0192        1.31       0.094
  WS02006249           JUNCTION      0.19    23.10     0  02:27      0.0286        1.29       0.168
  WS02006251           JUNCTION      0.97    22.97     0  02:27       0.053        1.26       0.156
  WS02006253           JUNCTION      0.11    22.46     0  02:27      0.0173        1.21       0.061
  WS02618401           JUNCTION      0.00     0.00     0  00:00           0           0       0.000 ltr
  WS8802               JUNCTION      0.00     0.00     0  00:00           0           0       0.000 ltr
  WSA1649              JUNCTION      0.00     0.00     0  00:00           0           0       0.000 ltr
  WSF200               JUNCTION      0.14    56.96     0  03:28      0.0216        3.45       0.080
  XR-Inflow            JUNCTION     88.69    88.69     0  03:01        7.48        7.48       0.325
  WS02004114           JUNCTION      0.57    89.62     0  03:01      0.0916        7.57       0.335
  outfall-24           OUTFALL       0.00    83.68     0  03:10           0        4.74       0.000
  outfall-2            OUTFALL       0.00     0.00     0  00:00           0           0       0.000 ltr
  outfall-5            OUTFALL       0.00     0.00     0  00:00           0           0       0.000 ltr
  outfall-8            OUTFALL       0.00     0.00     0  00:00           0           0       0.000 ltr
  outfall-14           OUTFALL       0.00     0.00     0  00:00           0           0       0.000 ltr
  outfall-16           OUTFALL       0.00     0.00     0  00:00           0           0       0.000 ltr
  outfall-17           OUTFALL       0.00     0.00     0  00:00           0           0       0.000 ltr
  outfall-27           OUTFALL       0.00     5.56     0  03:24           0      0.0313       0.000
  outfall-28           OUTFALL       0.00    10.49     0  03:01           0       0.168       0.000
  67                   OUTFALL       0.00     0.00     0  00:00           0           0       0.000 ltr
  12                   OUTFALL       0.00    99.12     0  03:32           0         8.2       0.000
  XR-storage           STORAGE       0.00    89.63     0  03:01           0        7.55       0.597
  CC-storage           STORAGE      10.65    10.65     0  03:01       0.755       0.755      -0.025
  JK-storage           STORAGE      10.53    10.53     0  03:01       0.667       0.667      -2.688
  
  
  **********************
  Node Surcharge Summary
  **********************
  
  Surcharging occurs when water rises above the top of the highest conduit.
  ---------------------------------------------------------------------
                                               Max. Height   Min. Depth
                                   Hours       Above Crown    Below Rim
  Node                 Type      Surcharged         Meters       Meters
  ---------------------------------------------------------------------
  WS01000070           JUNCTION        4.00          0.000        0.000
  WS01000323           JUNCTION        4.00          0.000        0.000
  WS01000533           JUNCTION        4.00          0.000        2.147
  WS01005172           JUNCTION        4.00          0.000        0.000
  WS01005181           JUNCTION        4.00          0.000        0.000
  WS01009841           JUNCTION        4.00          0.000        0.000
  WS02000078           JUNCTION        4.00          0.000        0.000
  WS02000112           JUNCTION        4.00          0.000        0.000
  WS02000136           JUNCTION        4.00          0.000        0.000
  WS02004053           JUNCTION        4.00          0.000        0.000
  WS02004997           JUNCTION        3.88          5.568        0.432
  WS02006183           JUNCTION        4.00          0.000        0.000
  WS02618401           JUNCTION        4.00          0.000        0.000
  WS8802               JUNCTION        4.00          0.000        4.942
  WSA1649              JUNCTION        4.00          0.000        0.000
  XR-Inflow            JUNCTION        3.69          5.524        0.126
  WS02004114           JUNCTION        3.88          5.455        1.060
  
  
  *********************
  Node Flooding Summary
  *********************
  
  No nodes were flooded.
  
  
  **********************
  Storage Volume Summary
  **********************
  
  --------------------------------------------------------------------------------------------------
                         Average     Avg  Evap Exfil       Maximum     Max    Time of Max    Maximum
                          Volume    Pcnt  Pcnt  Pcnt        Volume    Pcnt     Occurrence    Outflow
  Storage Unit           1000 m3    Full  Loss  Loss       1000 m3    Full    days hr:min        MLD
  --------------------------------------------------------------------------------------------------
  XR-storage               0.058      92     0     0         0.060      96       0  03:10      89.53
  CC-storage               0.052      33     0     0         0.148      93       0  03:24      17.28
  JK-storage               0.050      37     0     0         0.129      95       0  03:01      34.55
  
  
  ***********************
  Outfall Loading Summary
  ***********************
  
  ---------------------------------------------------------------------------------------------------------------------------------
                         Flow       Avg       Max       Total         Total         Total         Total         Total         Total
                         Freq      Flow      Flow      Volume           COD         NH3-N            TN            TP            SS
  Outfall Node           Pcnt       MLD       MLD    10^6 ltr            kg            kg            kg            kg            kg
  ---------------------------------------------------------------------------------------------------------------------------------
  outfall-24            92.45     45.62     83.68       4.737       551.611         0.000         0.000         0.000         0.000
  outfall-2              0.00      0.00      0.00       0.000         0.000         0.000         0.000         0.000         0.000
  outfall-5              0.00      0.00      0.00       0.000         0.000         0.000         0.000         0.000         0.000
  outfall-8              0.00      0.00      0.00       0.000         0.000         0.000         0.000         0.000         0.000
  outfall-14             0.00      0.00      0.00       0.000         0.000         0.000         0.000         0.000         0.000
  outfall-16             0.00      0.00      0.00       0.000         0.000         0.000         0.000         0.000         0.000
  outfall-17             0.00      0.00      0.00       0.000         0.000         0.000         0.000         0.000         0.000
  outfall-27             7.05      4.01      5.56       0.031         3.520         0.000         0.000         0.000         0.000
  outfall-28            18.05      8.42     10.49       0.168        18.346         0.000         0.000         0.000         0.000
  67                     0.00      0.00      0.00       0.000         0.000         0.000         0.000         0.000         0.000
  12                    99.99     56.42     99.12       8.199      1098.820         0.000         0.000         0.000         0.000
  ---------------------------------------------------------------------------------------------------------------------------------
  System                19.78    114.47    181.08      13.135      1672.297         0.000         0.000         0.000         0.000
  
  
  ********************
  Link Flow Summary
  ********************
  
  -----------------------------------------------------------------------------
                                 Maximum  Time of Max   Maximum    Max/    Max/
                                  |Flow|   Occurrence   |Veloc|    Full    Full
  Link                 Type          MLD  days hr:min     m/sec    Flow   Depth
  -----------------------------------------------------------------------------
  WSL49                CONDUIT     98.83     0  03:31      1.93    1.23    0.55
  WSL50                CONDUIT     18.53     0  03:14      1.95    1.28    0.41
  WSL51                CONDUIT     18.46     0  03:13      1.22    1.88    0.60
  WSL52                CONDUIT     18.47     0  03:13      1.05    0.86    0.68
  WSL53                CONDUIT     18.49     0  03:12      0.98    1.92    0.72
  WSL54                CONDUIT     18.54     0  03:12      0.91    1.49    0.78
  WSL55                CONDUIT     18.50     0  03:12      0.96    0.49    0.74
  WSL77                CONDUIT     18.52     0  03:12      1.02    0.97    0.70
  WSL78                CONDUIT     18.61     0  03:11      0.98    1.22    0.73
  WSL79                CONDUIT     18.65     0  03:07      1.01    0.64    0.71
  WSL80                CONDUIT     18.87     0  03:07      1.29    0.44    0.58
  WSL81                CONDUIT     19.44     0  03:06      1.51    1.44    0.53
  WSL82                CONDUIT     19.42     0  03:06      1.75    0.25    0.47
  WSL83                CONDUIT     19.16     0  03:06      2.62    0.24    0.35
  WSL84                CONDUIT     13.41     0  03:04      1.58    0.41    0.38
  WSL85                CONDUIT      0.40     0  01:18      0.40    0.01    0.78
  WSL86                CONDUIT      0.14     0  03:15      0.20    0.01    0.63
  WSL122               CONDUIT     15.50     0  03:07      0.74    1.55    0.79
  WSL123               CONDUIT     20.28     0  03:09      2.00    0.75    0.43
  WSL144               CONDUIT     14.65     0  03:07      0.71    0.57    0.79
  WSL145               CONDUIT     15.45     0  03:07      0.72    1.46    0.82
  WSL146               CONDUIT     16.41     0  03:05      0.82    1.20    0.77
  WSL147               CONDUIT     16.45     0  03:08      0.83    0.85    0.76
  WSL148               CONDUIT     16.50     0  03:08      0.85    1.57    0.75
  WSL149               CONDUIT     18.02     0  03:07      1.14    2.36    0.62
  WSL150               CONDUIT     18.32     0  03:06      1.48    0.61    0.51
  WSL151               CONDUIT     18.29     0  03:06      1.48    0.47    0.52
  WSL500               CONDUIT     12.21     0  03:04      1.59    0.40    0.35
  WSL502               CONDUIT     12.96     0  03:03      1.63    0.20    0.36
  WSL508               CONDUIT      4.82     0  03:03      0.77    0.18    0.31
  WSL509               CONDUIT      4.75     0  03:02      0.77    0.21    0.30
  WSL551               CONDUIT      5.75     0  03:01      1.13    0.13    0.26
  WSL553               CONDUIT      5.77     0  03:02      0.87    0.17    0.32
  WSL554               CONDUIT      5.80     0  03:02      0.78    0.30    0.34
  WSL555               CONDUIT      5.87     0  03:03      0.87    0.25    0.32
  WSL1465              CONDUIT     35.97     0  03:31      1.45    0.33    0.55
  WSL1472              CONDUIT     81.87     0  03:30      1.67    0.93    0.51
  WSL1475              CONDUIT    117.17     0  03:31      2.66    1.25    0.38
  WSL1476              CONDUIT     23.56     0  03:10      1.19    0.11    0.53
  WSL1477              CONDUIT      6.42     0  03:04      1.92    0.25    0.20
  WSL1490              CONDUIT     33.56     0  01:27      1.34    0.54    0.42
  WSL1491              CONDUIT     33.76     0  01:28      1.30    0.20    0.45
  WSL1492              CONDUIT     34.20     0  03:32      1.27    0.53    0.51
  WSL1506              CONDUIT      0.07     0  01:24      0.40    0.00    0.03
  WSL1507              CONDUIT      0.16     0  03:03      0.21    0.00    0.12
  WSL1508              CONDUIT      3.14     0  03:01      0.69    0.09    0.16
  WSL1512              CONDUIT      3.13     0  03:02      0.49    0.02    0.15
  WSL1513              CONDUIT      3.20     0  03:04      0.41    0.19    0.24
  WSL1515              CONDUIT     60.50     0  03:28      2.36    0.59    0.31
  WSL1516              CONDUIT      5.74     0  03:04      1.68    0.02    0.20
  WSL1518              CONDUIT      5.58     0  03:01      0.68    0.11    0.24
  WSL1519              CONDUIT      5.56     0  03:03      0.67    0.14    0.25
  WSL1521              CONDUIT      5.59     0  03:03      0.73    0.16    0.23
  WSL1525              CONDUIT     12.90     0  03:05      1.84    0.24    0.33
  WSL1526              CONDUIT     12.92     0  03:05      1.61    0.21    0.36
  WSL1529              CONDUIT     13.34     0  03:05      1.52    0.34    0.39
  WSL1530              CONDUIT     13.46     0  03:06      1.47    0.72    0.53
  WSL1532              CONDUIT     14.65     0  03:02      1.06    0.35    0.56
  WSL1543              CONDUIT      5.57     0  03:02      0.65    0.17    0.25
  WSL1545              CONDUIT     14.60     0  03:06      0.77    0.60    0.73
  WSL1641              CONDUIT      4.64     0  03:02      0.74    0.19    0.30
  WSL1642              CONDUIT      3.92     0  03:03      0.76    0.11    0.26
  WSL1643              CONDUIT      3.84     0  03:02      0.92    0.12    0.23
  WSL1644              CONDUIT      3.76     0  03:02      0.77    0.20    0.25
  WSL1646              CONDUIT      3.04     0  03:02      0.67    0.09    0.24
  WSL1647              CONDUIT      2.98     0  03:01      0.81    0.10    0.21
  WSL1652              CONDUIT      1.83     0  03:04      0.60    0.11    0.24
  WSL1764              CONDUIT     13.41     0  03:05      1.36    0.25    0.42
  WSL1931              CONDUIT      1.76     0  03:03      0.56    0.15    0.24
  WSL1932              CONDUIT      1.68     0  03:02      0.53    0.11    0.24
  WSL1934              CONDUIT      1.59     0  03:02      0.70    0.05    0.19
  WSL1935              CONDUIT      1.57     0  03:01      0.80    0.08    0.17
  WSL1961              CONDUIT     32.92     0  01:20      2.24    0.07    0.27
  WSL1964              CONDUIT     33.35     0  01:21      1.19    0.18    0.34
  WSL2010              CONDUIT     43.52     0  03:25      1.31    0.56    0.50
  WSL2011              CONDUIT     43.47     0  03:25      1.19    0.28    0.53
  WSL2012              CONDUIT     43.52     0  03:25      1.08    0.66    0.57
  WSL2013              CONDUIT     43.96     0  03:25      1.13    1.09    0.56
  WSL2014              CONDUIT     45.73     0  03:26      1.26    0.73    0.53
  WSL2015              CONDUIT     45.75     0  03:26      1.33    0.61    0.50
  WSL2016              CONDUIT     47.02     0  03:27      1.44    0.54    0.49
  WSL2017              CONDUIT     47.25     0  03:27      1.57    0.57    0.46
  WSL2018              CONDUIT     48.74     0  03:27      2.02    0.29    0.39
  WSL2019              CONDUIT     48.89     0  03:28      1.86    0.29    0.43
  WSL2028              CONDUIT     43.54     0  03:24      1.30    0.47    0.50
  WSL2029              CONDUIT     47.59     0  03:27      1.83    0.60    0.41
  WSL2031              CONDUIT      1.50     0  03:01      0.77    0.05    0.17
  WSL2032              CONDUIT      1.45     0  03:01      0.90    0.10    0.21
  WSL2034              CONDUIT      4.88     0  03:04      0.65    0.15    0.35
  WSL2037              CONDUIT      4.96     0  03:04      0.57    0.25    0.40
  WSL2038              CONDUIT      7.96     0  03:01      0.87    0.40    0.43
  WSL2039              CONDUIT      8.43     0  02:28      1.28    0.43    0.49
  WSL2041              CONDUIT      8.09     0  03:00      0.99    0.40    0.46
  WSL2124              CONDUIT      8.44     0  03:01      1.10    0.20    0.35
  WSL2126              CONDUIT      8.47     0  03:02      0.95    0.33    0.39
  WSL2127              CONDUIT      8.51     0  03:03      1.11    0.46    0.35
  WSL2128              CONDUIT      8.56     0  03:03      1.12    0.20    0.35
  WSL2130              CONDUIT     11.40     0  03:01      1.30    0.34    0.39
  WSL2146              CONDUIT     11.45     0  03:02      1.18    0.29    0.42
  WSL2147              CONDUIT     11.48     0  03:02      1.21    0.62    0.41
  WSL2148              CONDUIT     11.53     0  03:03      1.36    0.28    0.39
  WSL2294              CONDUIT     41.88     0  03:22      1.32    1.41    0.69
  WSL2295              CONDUIT     42.10     0  03:22      1.56    1.89    0.60
  WSL2296              CONDUIT     43.75     0  03:23      1.99    0.25    0.51
  WSL2297              CONDUIT     43.78     0  03:23      1.30    0.84    0.50
  WSL2298              CONDUIT     43.51     0  03:23      2.30    2.00    0.45
  WSL2301              CONDUIT     43.66     0  03:24      1.33    0.40    0.49
  WSL2302              CONDUIT     43.67     0  03:24      1.31    0.54    0.50
  WSL2357              CONDUIT      2.00     0  03:01      1.00    0.36    0.36
  WSL2358              CONDUIT      2.05     0  03:01      1.20    0.24    0.32
  WSL2359              CONDUIT      2.08     0  03:01      0.63    0.08    0.25
  WSL2361              CONDUIT      3.86     0  03:01      0.90    0.22    0.30
  WSL2362              CONDUIT      3.90     0  03:02      0.94    0.18    0.29
  WSL2441              CONDUIT     41.86     0  03:22      1.23    1.07    0.73
  WSL2442              CONDUIT     38.38     0  03:21      1.34    0.98    0.81
  WSL2443              CONDUIT     38.54     0  03:21      1.49    0.60    0.73
  WSL2444              CONDUIT     38.59     0  03:20      1.77    0.61    0.62
  WSL2446              CONDUIT     37.78     0  03:20      1.83    0.65    0.60
  WSL2447              CONDUIT     37.67     0  03:20      1.68    1.94    0.64
  WSL2448              CONDUIT     37.58     0  03:20      1.53    1.06    0.69
  WSL2449              CONDUIT     24.49     0  02:29      1.25    0.85    0.68
  WSL2450              CONDUIT     24.40     0  02:29      1.24    0.51    0.62
  WSL2451              CONDUIT     24.37     0  02:28      1.19    1.59    0.59
  WSL2452              CONDUIT     24.33     0  02:28      1.21    0.46    0.58
  WSL2454              CONDUIT     24.21     0  02:28      1.35    0.56    0.53
  WSL2478              CONDUIT     24.16     0  02:28      1.28    0.85    0.55
  WSL2479              CONDUIT     23.17     0  02:27      1.26    0.44    0.54
  WSL2480              CONDUIT     23.08     0  02:27      1.27    1.07    0.54
  WSL2482              CONDUIT     22.94     0  02:27      1.20    0.60    0.56
  WSL2484              CONDUIT     22.45     0  02:27      1.39    0.32    0.50
  WSL2493              CONDUIT     38.28     0  03:21      1.14    0.64    0.73
  WSL2867              CONDUIT     56.84     0  03:28      3.39    0.12    0.23
  WSL2868              CONDUIT     53.70     0  03:29      1.90    0.10    0.35
  5                    CONDUIT      2.97     0  03:01      0.87    0.14    0.26
  WSL348               CONDUIT     88.69     0  03:01      1.88    0.81    1.00
  WSL175               CONDUIT     89.10     0  03:01      2.29    3.00    1.00
  WSL1467              CONDUIT     82.28     0  03:29      1.61    0.44    0.52
  WSL1473              CONDUIT     81.90     0  03:30      1.73    0.34    0.52
  XRpipe               CONDUIT     89.63     0  03:01      2.54    0.22    1.00
  8                    CONDUIT      0.00     0  00:00      0.00    0.00    0.00
  19                   CONDUIT      0.00     0  00:00      0.00    0.00    0.00
  17                   CONDUIT      0.00     0  00:00      0.00    0.00    0.00
  4                    CONDUIT      0.00     0  00:00      0.00    0.00    0.00
  outletpipe           CONDUIT     83.68     0  03:10     14.75    0.28    0.37
  11                   CONDUIT      0.00     0  00:00      0.00    0.00    0.00
  20                   CONDUIT      0.00     0  00:00      0.00    0.00    0.00
  1                    CONDUIT      5.56     0  03:24      2.92    0.12    0.23
  28                   CONDUIT     10.49     0  03:01      2.70    0.32    0.39
  30                   CONDUIT      0.00     0  00:00      0.00    0.00    0.00
  2                    CONDUIT     99.12     0  03:32      3.74    0.36    0.42
  XR-Pump-1            PUMP         8.12     0  01:20              1.00
  XR-Pump-3            PUMP         8.12     0  01:20              1.00
  XR-Pump-2            PUMP         8.12     0  01:20              1.00
  XR-Pump-4            PUMP         8.12     0  01:20              1.00
  CC-Pump-1            PUMP         0.00     0  00:00              0.00
  CC-Pump-2            PUMP        17.28     0  02:20              1.00
  JK-Pump-1            PUMP        17.28     0  03:20              1.00
  JK-Pump-2            PUMP        17.28     0  01:50              1.00
  
  
  ***************************
  Flow Classification Summary
  ***************************
  
  -------------------------------------------------------------------------------------
                      Adjusted    ---------- Fraction of Time in Flow Class ---------- 
                       /Actual         Up    Down  Sub   Sup   Up    Down  Norm  Inlet 
  Conduit               Length    Dry  Dry   Dry   Crit  Crit  Crit  Crit  Ltd   Ctrl  
  -------------------------------------------------------------------------------------
  WSL49                   1.00   0.00  0.00  0.00  1.00  0.00  0.00  0.00  0.00  0.00
  WSL50                   1.00   0.00  0.00  0.00  0.08  0.92  0.00  0.00  0.00  0.00
  WSL51                   1.00   0.00  0.00  0.00  1.00  0.00  0.00  0.00  0.01  0.00
  WSL52                   1.00   0.00  0.00  0.00  1.00  0.00  0.00  0.00  0.10  0.00
  WSL53                   1.00   0.00  0.00  0.00  1.00  0.00  0.00  0.00  0.01  0.00
  WSL54                   1.00   0.00  0.00  0.00  1.00  0.00  0.00  0.00  0.00  0.00
  WSL55                   1.00   0.00  0.00  0.00  1.00  0.00  0.00  0.00  0.21  0.00
  WSL77                   1.00   0.00  0.00  0.00  1.00  0.00  0.00  0.00  0.00  0.00
  WSL78                   1.00   0.00  0.00  0.00  1.00  0.00  0.00  0.00  0.00  0.00
  WSL79                   1.00   0.00  0.00  0.00  1.00  0.00  0.00  0.00  0.35  0.00
  WSL80                   1.00   0.00  0.00  0.00  1.00  0.00  0.00  0.00  0.40  0.00
  WSL81                   1.00   0.00  0.00  0.00  1.00  0.00  0.00  0.00  0.00  0.00
  WSL82                   1.00   0.00  0.00  0.00  0.22  0.78  0.00  0.00  0.80  0.00
  WSL83                   1.00   0.00  0.00  0.00  0.00  1.00  0.00  0.00  0.44  0.00
  WSL84                   1.00   0.00  0.00  0.00  0.01  0.99  0.00  0.00  0.04  0.00
  WSL85                   1.00   0.00  0.00  0.00  1.00  0.00  0.00  0.00  0.11  0.00
  WSL86                   1.00   0.00  0.00  0.00  1.00  0.00  0.00  0.00  0.40  0.00
  WSL122                  1.00   0.00  0.00  0.00  1.00  0.00  0.00  0.00  0.00  0.00
  WSL123                  1.00   0.00  0.00  0.00  0.01  0.99  0.00  0.00  0.02  0.00
  WSL144                  1.00   0.00  0.00  0.00  1.00  0.00  0.00  0.00  0.27  0.00
  WSL145                  1.00   0.00  0.00  0.00  1.00  0.00  0.00  0.00  0.01  0.00
  WSL146                  1.00   0.00  0.00  0.00  1.00  0.00  0.00  0.00  0.03  0.00
  WSL147                  1.00   0.00  0.00  0.00  1.00  0.00  0.00  0.00  0.04  0.00
  WSL148                  1.00   0.00  0.00  0.00  1.00  0.00  0.00  0.00  0.00  0.00
  WSL149                  1.00   0.00  0.00  0.00  1.00  0.00  0.00  0.00  0.01  0.00
  WSL150                  1.00   0.00  0.00  0.00  0.60  0.40  0.00  0.00  0.00  0.00
  WSL151                  1.00   0.00  0.00  0.00  0.74  0.26  0.00  0.00  0.13  0.00
  WSL500                  1.00   0.00  0.00  0.00  0.01  0.99  0.00  0.00  0.00  0.00
  WSL502                  1.00   0.00  0.00  0.00  0.01  0.99  0.00  0.00  0.97  0.00
  WSL508                  1.00   0.00  0.00  0.00  1.00  0.00  0.00  0.00  0.11  0.00
  WSL509                  1.00   0.00  0.00  0.00  1.00  0.00  0.00  0.00  0.00  0.00
  WSL551                  1.00   0.00  0.00  0.00  0.27  0.73  0.00  0.00  0.76  0.00
  WSL553                  1.00   0.00  0.00  0.00  1.00  0.00  0.00  0.00  1.00  0.00
  WSL554                  1.00   0.00  0.00  0.00  1.00  0.00  0.00  0.00  0.23  0.00
  WSL555                  1.00   0.00  0.00  0.00  1.00  0.00  0.00  0.00  0.00  0.00
  WSL1465                 1.00   0.00  0.00  0.00  1.00  0.00  0.00  0.00  0.18  0.00
  WSL1472                 1.00   0.00  0.00  0.00  1.00  0.00  0.00  0.00  0.00  0.00
  WSL1475                 1.00   0.00  0.00  0.00  0.21  0.79  0.00  0.00  0.01  0.00
  WSL1476                 1.00   0.00  0.00  0.00  1.00  0.00  0.00  0.00  1.00  0.00
  WSL1477                 1.00   0.00  0.00  0.00  0.00  1.00  0.00  0.00  0.15  0.00
  WSL1490                 1.00   0.00  0.00  0.00  1.00  0.00  0.00  0.00  0.00  0.00
  WSL1491                 1.00   0.00  0.00  0.00  1.00  0.00  0.00  0.00  0.27  0.00
  WSL1492                 1.00   0.00  0.00  0.00  1.00  0.00  0.00  0.00  0.03  0.00
  WSL1506                 1.00   0.00  0.00  0.00  1.00  0.00  0.00  0.00  0.99  0.00
  WSL1507                 1.00   0.00  0.00  0.00  1.00  0.00  0.00  0.00  0.89  0.00
  WSL1508                 1.00   0.00  0.00  0.00  1.00  0.00  0.00  0.00  0.00  0.00
  WSL1512                 1.00   0.00  0.00  0.00  1.00  0.00  0.00  0.00  1.00  0.00
  WSL1513                 1.00   0.00  0.00  0.00  1.00  0.00  0.00  0.00  0.00  0.00
  WSL1515                 1.00   0.00  0.00  0.00  0.02  0.98  0.00  0.00  0.01  0.00
  WSL1516                 1.00   0.00  0.00  0.00  0.00  1.00  0.00  0.00  1.00  0.00
  WSL1518                 1.00   0.00  0.00  0.00  1.00  0.00  0.00  0.00  0.72  0.00
  WSL1519                 1.00   0.00  0.00  0.00  1.00  0.00  0.00  0.00  0.36  0.00
  WSL1521                 1.00   0.00  0.00  0.00  1.00  0.00  0.00  0.00  0.02  0.00
  WSL1525                 1.00   0.00  0.00  0.00  0.00  1.00  0.00  0.00  0.20  0.00
  WSL1526                 1.00   0.00  0.00  0.00  0.00  1.00  0.00  0.00  0.55  0.00
  WSL1529                 1.00   0.00  0.00  0.00  0.00  1.00  0.00  0.00  0.93  0.00
  WSL1530                 1.00   0.00  0.00  0.00  0.24  0.76  0.00  0.00  0.00  0.00
  WSL1532                 1.00   0.00  0.00  0.00  1.00  0.00  0.00  0.00  1.00  0.00
  WSL1543                 1.00   0.00  0.00  0.00  1.00  0.00  0.00  0.00  0.02  0.00
  WSL1545                 1.00   0.00  0.00  0.00  1.00  0.00  0.00  0.00  0.04  0.00
  WSL1641                 1.00   0.00  0.00  0.00  1.00  0.00  0.00  0.00  0.31  0.00
  WSL1642                 1.00   0.00  0.00  0.00  1.00  0.00  0.00  0.00  0.98  0.00
  WSL1643                 1.00   0.00  0.00  0.00  1.00  0.00  0.00  0.00  0.44  0.00
  WSL1644                 1.00   0.00  0.00  0.00  1.00  0.00  0.00  0.00  0.02  0.00
  WSL1646                 1.00   0.00  0.00  0.00  1.00  0.00  0.00  0.00  0.99  0.00
  WSL1647                 1.00   0.00  0.00  0.00  1.00  0.00  0.00  0.00  0.02  0.00
  WSL1652                 1.00   0.00  0.00  0.00  1.00  0.00  0.00  0.00  0.53  0.00
  WSL1764                 1.00   0.00  0.00  0.00  0.38  0.62  0.00  0.00  0.34  0.00
  WSL1931                 1.00   0.00  0.00  0.00  1.00  0.00  0.00  0.00  0.00  0.00
  WSL1932                 1.00   0.00  0.00  0.00  1.00  0.00  0.00  0.00  0.95  0.00
  WSL1934                 1.00   0.00  0.00  0.00  1.00  0.00  0.00  0.00  1.00  0.00
  WSL1935                 1.00   0.00  0.00  0.00  0.76  0.24  0.00  0.00  0.00  0.00
  WSL1961                 1.00   0.00  0.00  0.00  0.35  0.65  0.00  0.00  0.99  0.00
  WSL1964                 1.00   0.00  0.00  0.00  1.00  0.00  0.00  0.00  0.37  0.00
  WSL2010                 1.00   0.00  0.00  0.00  1.00  0.00  0.00  0.00  0.00  0.00
  WSL2011                 1.00   0.00  0.00  0.00  1.00  0.00  0.00  0.00  0.13  0.00
  WSL2012                 1.00   0.00  0.00  0.00  1.00  0.00  0.00  0.00  0.00  0.00
  WSL2013                 1.00   0.00  0.00  0.00  1.00  0.00  0.00  0.00  0.00  0.00
  WSL2014                 1.00   0.00  0.00  0.00  1.00  0.00  0.00  0.00  0.00  0.00
  WSL2015                 1.00   0.00  0.00  0.00  1.00  0.00  0.00  0.00  0.02  0.00
  WSL2016                 1.00   0.00  0.00  0.00  1.00  0.00  0.00  0.00  0.06  0.00
  WSL2017                 1.00   0.00  0.00  0.00  1.00  0.00  0.00  0.00  0.04  0.00
  WSL2018                 1.00   0.00  0.00  0.00  0.00  1.00  0.00  0.00  0.16  0.00
  WSL2019                 1.00   0.00  0.00  0.00  0.08  0.92  0.00  0.00  0.11  0.00
  WSL2028                 1.00   0.00  0.00  0.00  1.00  0.00  0.00  0.00  0.06  0.00
  WSL2029                 1.00   0.00  0.00  0.00  0.23  0.77  0.00  0.00  0.00  0.00
  WSL2031                 1.00   0.00  0.00  0.00  1.00  0.00  0.00  0.00  0.96  0.00
  WSL2032                 1.00   0.00  0.00  0.00  0.26  0.74  0.00  0.00  0.60  0.00
  WSL2034                 1.00   0.00  0.00  0.00  1.00  0.00  0.00  0.00  0.07  0.00
  WSL2037                 1.00   0.00  0.00  0.00  1.00  0.00  0.00  0.00  0.03  0.00
  WSL2038                 1.00   0.00  0.00  0.00  1.00  0.00  0.00  0.00  0.02  0.00
  WSL2039                 1.00   0.00  0.00  0.00  0.72  0.28  0.00  0.00  0.01  0.00
  WSL2041                 1.00   0.00  0.00  0.00  1.00  0.00  0.00  0.00  0.04  0.00
  WSL2124                 1.00   0.00  0.00  0.00  1.00  0.00  0.00  0.00  0.77  0.00
  WSL2126                 1.00   0.00  0.00  0.00  1.00  0.00  0.00  0.00  0.68  0.00
  WSL2127                 1.00   0.00  0.00  0.00  1.00  0.00  0.00  0.00  0.00  0.00
  WSL2128                 1.00   0.00  0.00  0.00  1.00  0.00  0.00  0.00  0.85  0.00
  WSL2130                 1.00   0.00  0.00  0.00  0.45  0.55  0.00  0.00  0.01  0.00
  WSL2146                 1.00   0.00  0.00  0.00  1.00  0.00  0.00  0.00  0.77  0.00
  WSL2147                 1.00   0.00  0.00  0.00  1.00  0.00  0.00  0.00  0.01  0.00
  WSL2148                 1.00   0.00  0.00  0.00  0.28  0.72  0.00  0.00  0.38  0.00
  WSL2294                 1.00   0.00  0.00  0.00  1.00  0.00  0.00  0.00  0.00  0.00
  WSL2295                 1.00   0.00  0.00  0.00  1.00  0.00  0.00  0.00  0.00  0.00
  WSL2296                 1.00   0.00  0.00  0.00  0.12  0.88  0.00  0.00  0.74  0.00
[...]
  17                      1.00   1.00  0.00  0.00  0.00  0.00  0.00  0.00  0.00  0.00
  4                       1.00   1.00  0.00  0.00  0.00  0.00  0.00  0.00  0.00  0.00
  outletpipe              1.00   0.08  0.00  0.00  0.00  0.92  0.00  0.00  0.00  0.00
  11                      1.00   1.00  0.00  0.00  0.00  0.00  0.00  0.00  0.00  0.00
  20                      1.00   1.00  0.00  0.00  0.00  0.00  0.00  0.00  0.00  0.00
  1                       1.00   0.93  0.00  0.00  0.00  0.07  0.00  0.00  0.02  0.00
  28                      1.00   0.82  0.00  0.00  0.00  0.18  0.00  0.00  0.05  0.00
  30                      1.00   1.00  0.00  0.00  0.00  0.00  0.00  0.00  0.00  0.00
  2                       1.00   0.00  0.00  0.00  0.00  1.00  0.00  0.00  0.23  0.00
  
  
  *************************
  Conduit Surcharge Summary
  *************************
  
  ----------------------------------------------------------------------------
                                                           Hours        Hours 
                         --------- Hours Full --------   Above Full   Capacity
  Conduit                Both Ends  Upstream  Dnstream   Normal Flow   Limited
  ----------------------------------------------------------------------------
  WSL49                       0.01      0.01      0.01      0.56         0.01
  WSL50                       0.01      0.01      0.01      0.55         0.01
  WSL51                       0.01      0.01      0.01      1.29         0.01
  WSL53                       0.01      0.01      0.01      1.33         0.01
  WSL54                       0.01      0.01      0.01      0.79         0.01
  WSL78                       0.01      0.01      0.01      0.43         0.01
  WSL81                       0.01      0.01      0.01      0.61         0.01
  WSL122                      0.01      0.01      0.01      0.81         0.01
  WSL145                      0.01      0.01      0.01      0.70         0.01
  WSL146                      0.01      0.01      0.01      0.40         0.01
  WSL148                      0.01      0.01      0.01      0.85         0.01
  WSL149                      0.01      0.01      0.01      1.72         0.01
  WSL1475                     0.01      0.01      0.01      0.25         0.01
  WSL2013                     0.01      0.01      0.01      0.05         0.01
  WSL2294                     0.01      0.01      0.01      0.15         0.01
  WSL2295                     0.01      0.01      0.01      0.98         0.01
  WSL2298                     0.01      0.01      0.01      1.32         0.01
  WSL2441                     0.01      0.01      0.01      0.06         0.01
  WSL2447                     0.01      0.01      0.01      0.67         0.01
  WSL2448                     0.01      0.01      0.01      0.05         0.01
  WSL2451                     0.01      0.01      0.01      0.92         0.01
  WSL2480                     0.01      0.01      0.01      0.10         0.01
  WSL348                      3.69      3.69      3.88      0.01         0.01
  WSL175                      3.88      3.88      3.88      2.37         2.47
  XRpipe                      3.88      3.88      3.96      0.01         0.01
  
  
  ***************
  Pumping Summary
  ***************
  
  ---------------------------------------------------------------------------------------------------------
                                                  Min       Avg       Max     Total     Power    % Time Off
                        Percent   Number of      Flow      Flow      Flow    Volume     Usage    Pump Curve
  Pump                 Utilized   Start-Ups       MLD       MLD       MLD  10^6 ltr     Kw-hr    Low   High
  ---------------------------------------------------------------------------------------------------------
  XR-Pump-1               74.99           6      0.00      4.76      8.12     0.677      3.00    0.0    0.0
  XR-Pump-3               74.99           6      0.00      4.76      8.12     0.677      3.00    0.0    0.0
  XR-Pump-2               74.99           6      0.00      4.76      8.12     0.677      3.00    0.0    0.0
  XR-Pump-4               74.99           6      0.00      4.76      8.12     0.677      3.00    0.0    0.0
  CC-Pump-1                0.00           0      0.00      0.00      0.00     0.000      0.00    0.0    0.0
  CC-Pump-2               50.00           4      0.00      7.85     17.28     0.621      5.94    0.0    0.0
  JK-Pump-1                8.33           1      0.00      7.88     17.28     0.109      0.77    0.0    0.0
  JK-Pump-2               33.35           3      0.00      6.14     17.28     0.332      3.18    0.0    0.0
  
  
  ***************************
  Link Pollutant Load Summary
  ***************************
  
  ------------------------------------------------------------------------------------------
                                 COD         NH3-N            TN            TP            SS
  Link                            kg            kg            kg            kg            kg
  ------------------------------------------------------------------------------------------
  WSL49                     1064.281         0.000         0.000         0.000         0.000
  WSL50                      173.917         0.000         0.000         0.000         0.000
  WSL51                      172.596         0.000         0.000         0.000         0.000
  WSL52                      172.669         0.000         0.000         0.000         0.000
  WSL53                      172.226         0.000         0.000         0.000         0.000
  WSL54                      172.542         0.000         0.000         0.000         0.000
  WSL55                      171.576         0.000         0.000         0.000         0.000
  WSL77                      171.436         0.000         0.000         0.000         0.000
  WSL78                      171.008         0.000         0.000         0.000         0.000
  WSL79                      170.252         0.000         0.000         0.000         0.000
  WSL80                      168.979         0.000         0.000         0.000         0.000
  WSL81                      167.428         0.000         0.000         0.000         0.000
  WSL82                      166.643         0.000         0.000         0.000         0.000
  WSL83                      166.487         0.000         0.000         0.000         0.000
  WSL84                       94.778         0.000         0.000         0.000         0.000
  WSL85                        3.194         0.000         0.000         0.000         0.000
  WSL86                        0.998         0.000         0.000         0.000         0.000
  WSL122                     137.613         0.000         0.000         0.000         0.000
  WSL123                     165.423         0.000         0.000         0.000         0.000
  WSL144                     117.408         0.000         0.000         0.000         0.000
  WSL145                     136.709         0.000         0.000         0.000         0.000
  WSL146                     143.648         0.000         0.000         0.000         0.000
  WSL147                     143.831         0.000         0.000         0.000         0.000
  WSL148                     143.602         0.000         0.000         0.000         0.000
  WSL149                     163.711         0.000         0.000         0.000         0.000
  WSL150                     165.133         0.000         0.000         0.000         0.000
  WSL151                     165.261         0.000         0.000         0.000         0.000
  WSL500                      85.599         0.000         0.000         0.000         0.000
  WSL502                      93.241         0.000         0.000         0.000         0.000
  WSL508                      50.691         0.000         0.000         0.000         0.000
  WSL509                      48.735         0.000         0.000         0.000         0.000
  WSL551                      44.382         0.000         0.000         0.000         0.000
  WSL553                      45.425         0.000         0.000         0.000         0.000
  WSL554                      46.625         0.000         0.000         0.000         0.000
  WSL555                      48.156         0.000         0.000         0.000         0.000
  WSL1465                    403.248         0.000         0.000         0.000         0.000
  WSL1472                    843.915         0.000         0.000         0.000         0.000
  WSL1475                   1082.348         0.000         0.000         0.000         0.000
  WSL1476                    216.874         0.000         0.000         0.000         0.000
  WSL1477                     41.423         0.000         0.000         0.000         0.000
  WSL1490                    385.012         0.000         0.000         0.000         0.000
  WSL1491                    390.231         0.000         0.000         0.000         0.000
  WSL1492                    397.949         0.000         0.000         0.000         0.000
  WSL1506                      1.646         0.000         0.000         0.000         0.000
  WSL1507                      2.135         0.000         0.000         0.000         0.000
  WSL1508                     24.575         0.000         0.000         0.000         0.000
  WSL1512                     24.983         0.000         0.000         0.000         0.000
  WSL1513                     26.559         0.000         0.000         0.000         0.000
  WSL1515                    428.687         0.000         0.000         0.000         0.000
  WSL1516                     42.138         0.000         0.000         0.000         0.000
  WSL1518                     38.802         0.000         0.000         0.000         0.000
  WSL1519                     39.489         0.000         0.000         0.000         0.000
  WSL1521                     40.564         0.000         0.000         0.000         0.000
  WSL1525                     96.219         0.000         0.000         0.000         0.000
  WSL1526                     96.635         0.000         0.000         0.000         0.000
  WSL1529                    101.086         0.000         0.000         0.000         0.000
  WSL1530                    104.423         0.000         0.000         0.000         0.000
  WSL1532                    112.613         0.000         0.000         0.000         0.000
  WSL1543                     39.074         0.000         0.000         0.000         0.000
  WSL1545                    116.179         0.000         0.000         0.000         0.000
  WSL1641                     45.548         0.000         0.000         0.000         0.000
  WSL1642                     40.732         0.000         0.000         0.000         0.000
  WSL1643                     38.032         0.000         0.000         0.000         0.000
  WSL1644                     35.345         0.000         0.000         0.000         0.000
  WSL1646                     30.426         0.000         0.000         0.000         0.000
  WSL1647                     28.333         0.000         0.000         0.000         0.000
  WSL1652                     21.861         0.000         0.000         0.000         0.000
  WSL1764                    102.610         0.000         0.000         0.000         0.000
  WSL1931                     19.897         0.000         0.000         0.000         0.000
  WSL1932                     17.126         0.000         0.000         0.000         0.000
  WSL1934                     13.796         0.000         0.000         0.000         0.000
  WSL1935                     13.095         0.000         0.000         0.000         0.000
  WSL1961                    368.434         0.000         0.000         0.000         0.000
  WSL1964                    378.769         0.000         0.000         0.000         0.000
  WSL2010                    306.112         0.000         0.000         0.000         0.000
  WSL2011                    311.282         0.000         0.000         0.000         0.000
  WSL2012                    316.707         0.000         0.000         0.000         0.000
  WSL2013                    325.870         0.000         0.000         0.000         0.000
  WSL2014                    369.429         0.000         0.000         0.000         0.000
  WSL2015                    370.824         0.000         0.000         0.000         0.000
  WSL2016                    398.540         0.000         0.000         0.000         0.000
  WSL2017                    401.023         0.000         0.000         0.000         0.000
  WSL2018                    421.049         0.000         0.000         0.000         0.000
  WSL2019                    423.099         0.000         0.000         0.000         0.000
  WSL2028                    301.221         0.000         0.000         0.000         0.000
  WSL2029                    406.231         0.000         0.000         0.000         0.000
  WSL2031                     10.947         0.000         0.000         0.000         0.000
  WSL2032                      9.110         0.000         0.000         0.000         0.000
  WSL2034                     51.411         0.000         0.000         0.000         0.000
  WSL2037                     52.679         0.000         0.000         0.000         0.000
  WSL2038                     68.816         0.000         0.000         0.000         0.000
  WSL2039                     74.107         0.000         0.000         0.000         0.000
  WSL2041                     71.825         0.000         0.000         0.000         0.000
  WSL2124                     62.020         0.000         0.000         0.000         0.000
  WSL2126                     62.930         0.000         0.000         0.000         0.000
  WSL2127                     64.414         0.000         0.000         0.000         0.000
  WSL2128                     65.965         0.000         0.000         0.000         0.000
  WSL2130                     80.769         0.000         0.000         0.000         0.000
  WSL2146                     82.192         0.000         0.000         0.000         0.000
  WSL2147                     83.005         0.000         0.000         0.000         0.000
  WSL2148                     84.131         0.000         0.000         0.000         0.000
  WSL2294                    279.278         0.000         0.000         0.000         0.000
  WSL2295                    280.483         0.000         0.000         0.000         0.000
  WSL2296                    290.032         0.000         0.000         0.000         0.000
  WSL2297                    293.950         0.000         0.000         0.000         0.000
  WSL2298                    284.121         0.000         0.000         0.000         0.000
  WSL2301                    295.303         0.000         0.000         0.000         0.000
  WSL2302                    300.568         0.000         0.000         0.000         0.000
  WSL2357                     15.632         0.000         0.000         0.000         0.000
  WSL2358                     17.240         0.000         0.000         0.000         0.000
  WSL2359                     18.225         0.000         0.000         0.000         0.000
  WSL2361                     33.488         0.000         0.000         0.000         0.000
  WSL2362                     34.818         0.000         0.000         0.000         0.000
  WSL2441                    277.966         0.000         0.000         0.000         0.000
  WSL2442                    216.757         0.000         0.000         0.000         0.000
  WSL2443                    215.214         0.000         0.000         0.000         0.000
  WSL2444                    211.924         0.000         0.000         0.000         0.000
  WSL2446                    209.902         0.000         0.000         0.000         0.000
  WSL2447                    206.455         0.000         0.000         0.000         0.000
  WSL2448                    202.766         0.000         0.000         0.000         0.000
  WSL2449                    164.556         0.000         0.000         0.000         0.000
  WSL2450                    161.999         0.000         0.000         0.000         0.000
  WSL2451                    160.620         0.000         0.000         0.000         0.000
  WSL2452                    158.963         0.000         0.000         0.000         0.000
  WSL2454                    154.679         0.000         0.000         0.000         0.000
  WSL2478                    152.997         0.000         0.000         0.000         0.000
  WSL2479                    141.742         0.000         0.000         0.000         0.000
  WSL2480                    138.628         0.000         0.000         0.000         0.000
  WSL2482                    134.199         0.000         0.000         0.000         0.000
  WSL2484                    125.463         0.000         0.000         0.000         0.000
  WSL2493                    219.535         0.000         0.000         0.000         0.000
  WSL2867                    430.210         0.000         0.000         0.000         0.000
  WSL2868                    433.838         0.000         0.000         0.000         0.000
  5                           27.876         0.000         0.000         0.000         0.000
  WSL348                     901.120         0.000         0.000         0.000         0.000
  WSL175                     908.146         0.000         0.000         0.000         0.000
  WSL1467                    838.141         0.000         0.000         0.000         0.000
  WSL1473                    848.216         0.000         0.000         0.000         0.000
  XRpipe                     921.225         0.000         0.000         0.000         0.000
  8                            0.000         0.000         0.000         0.000         0.000
  19                           0.000         0.000         0.000         0.000         0.000
  17                           0.000         0.000         0.000         0.000         0.000
  4                            0.000         0.000         0.000         0.000         0.000
  outletpipe                 551.611         0.000         0.000         0.000         0.000
  11                           0.000         0.000         0.000         0.000         0.000
  20                           0.000         0.000         0.000         0.000         0.000
  1                            3.520         0.000         0.000         0.000         0.000
  28                          18.346         0.000         0.000         0.000         0.000
  30                           0.000         0.000         0.000         0.000         0.000
  2                         1098.820         0.000         0.000         0.000         0.000
  XR-Pump-1                   89.091         0.000         0.000         0.000         0.000
  XR-Pump-3                   89.091         0.000         0.000         0.000         0.000
  XR-Pump-2                   89.091         0.000         0.000         0.000         0.000
  XR-Pump-4                   89.091         0.000         0.000         0.000         0.000
  CC-Pump-1                    0.000         0.000         0.000         0.000         0.000
  CC-Pump-2                   48.570         0.000         0.000         0.000         0.000
  JK-Pump-1                    9.648         0.000         0.000         0.000         0.000
  JK-Pump-2                   25.190         0.000         0.000         0.000         0.000
  

  Analysis begun on:  Mon Oct 29 01:02:17 2018
  Analysis ended on:  Mon Oct 29 01:02:21 2018
  Total elapsed time: 00:00:04