
  EPA STORM WATER MANAGEMENT MODEL - VERSION 5.1 (Build 5.2.0.dev1)
  --------------------------------------------------------------

  
  *********************************************************
  NOTE: The summary statistics displayed in this report are
  based on results found at every computational time step,  
  not just on results from each reporting time step.
  *********************************************************
  
  ****************
  Analysis Options
  ****************
  Flow Units ............... MLD
  Process Models:
    Rainfall/Runoff ........ YES
    RDII ................... NO
    Snowmelt ............... NO
    Groundwater ............ NO
    Flow Routing ........... YES
    Ponding Allowed ........ NO
    Water Quality .......... YES
  Infiltration Method ...... GREEN_AMPT
  Flow Routing Method ...... DYNWAVE
  Starting Date ............ 08/28/2015 08:00:00
  Ending Date .............. 08/28/2015 12:00:00
  Antecedent Dry Days ...... 4.0
  Report Time Step ......... 00:01:00
  Wet Time Step ............ 00:01:00
  Dry Time Step ............ 00:01:00
  Routing Time Step ........ 5.00 sec
  Variable Time Step ....... YES
  Maximum Trials ........... 8
  Number of Threads ........ 1
  Head Tolerance ........... 0.001500 m
  
  
  **************************        Volume         Depth
  Runoff Quantity Continuity     hectare-m            mm
  **************************     ---------       -------
  Total Precipitation ......         3.479        10.524
  Evaporation Loss .........         0.000         0.000
  Infiltration Loss ........         1.863         5.634
  Surface Runoff ...........         0.772         2.336
  Final Storage ............         0.846         2.558
  Continuity Error (%) .....        -0.037
  
  
  **************************           COD         NH3-N            TN            TP            SS
  Runoff Quality Continuity             kg            kg            kg            kg            kg
  **************************    ----------    ----------    ----------    ----------    ----------
  Initial Buildup ..........     15404.640         0.000         0.000         0.000         0.000
  Surface Buildup ..........       130.323         0.000         0.000         0.000         0.000
  Wet Deposition ...........         0.000         0.000         0.000         0.000         0.000
  Sweeping Removal .........         0.000         0.000         0.000         0.000         0.000
  Infiltration Loss ........       121.608         0.000         0.000         0.000         0.000
  BMP Removal ..............         0.000         0.000         0.000         0.000         0.000
  Surface Runoff ...........       714.239         0.000         0.000         0.000         0.000
  Remaining Buildup ........     14698.515         0.000         0.000         0.000         0.000
  Continuity Error (%) .....         0.004         0.000         0.000         0.000         0.000
  
  
  **************************        Volume        Volume
  Flow Routing Continuity        hectare-m      10^6 ltr
  **************************     ---------     ---------
  Dry Weather Inflow .......         0.000         0.000
  Wet Weather Inflow .......         0.771         7.707
  Groundwater Inflow .......         0.000         0.000
  RDII Inflow ..............         0.000         0.000
  External Inflow ..........         0.621         6.206
  External Outflow .........         1.301        13.012
  Flooding Loss ............         0.000         0.000
  Evaporation Loss .........         0.000         0.000
  Exfiltration Loss ........         0.000         0.000
  Initial Stored Volume ....         0.000         0.000
  Final Stored Volume ......         0.091         0.906
  Continuity Error (%) .....        -0.032
  
  
  **************************           COD         NH3-N            TN            TP            SS
  Quality Routing Continuity            kg            kg            kg            kg            kg
  **************************    ----------    ----------    ----------    ----------    ----------
  Dry Weather Inflow .......         0.000         0.000         0.000         0.000         0.000
  Wet Weather Inflow .......       713.091         0.000         0.000         0.000         0.000
  Groundwater Inflow .......         0.000         0.000         0.000         0.000         0.000
  RDII Inflow ..............         0.000         0.000         0.000         0.000         0.000
  External Inflow ..........      1036.421         0.000         0.000         0.000         0.000
  External Outflow .........      1656.746         0.000         0.000         0.000         0.000
  Flooding Loss ............         0.000         0.000         0.000         0.000         0.000
  Exfiltration Loss ........         0.000         0.000         0.000         0.000         0.000
  Mass Reacted .............         0.000         0.000         0.000         0.000         0.000
  Initial Stored Mass ......         0.000         0.000         0.000         0.000         0.000
  Final Stored Mass ........        92.521         0.000         0.000         0.000         0.000
  Continuity Error (%) .....         0.014         0.000         0.000         0.000         0.000
  
  
  *************************
  Highest Continuity Errors
  *************************
  Node WS02003123 (2.34%)
  Node WS02003099 (1.08%)
  
  
  ***************************
  Time-Step Critical Elements
  ***************************
  Link outletpipe (88.42%)
  Link WSL2448 (9.86%)
  
  
  ********************************
  Highest Flow Instability Indexes
  ********************************
  Link WSL1477 (43)
  Link WSL1516 (40)
  Link WSL84 (11)
  Link WSL1515 (8)
  Link WSL2867 (6)
  
  
  *************************
  Routing Time Step Summary
  *************************
  Minimum Time Step           :     0.25 sec
  Average Time Step           :     0.85 sec
  Maximum Time Step           :     5.00 sec
  Percent in Steady State     :     0.00
  Average Iterations per Step :     2.09
  Percent Not Converging      :     1.21
  
  
  ***************************
  Subcatchment Runoff Summary
  ***************************
  
  --------------------------------------------------------------------------------------------------------
                            Total      Total      Total      Total      Total       Total     Peak  Runoff
                           Precip      Runon       Evap      Infil     Runoff      Runoff   Runoff   Coeff
  Subcatchment                 mm         mm         mm         mm         mm    10^6 ltr      MLD
  --------------------------------------------------------------------------------------------------------
  1                         10.52       9.06       0.00       7.78       7.47        0.09     1.16   0.381
  2                         10.52       0.00       0.00       6.42       2.91        0.10     1.73   0.277
  3                         10.52       0.00       0.00       6.44       2.81        0.14     2.46   0.267
  4                         10.52       0.00       0.00       6.41       2.97        0.08     1.41   0.283
  5                         10.52       7.26       0.00       7.66       6.39        0.11     1.54   0.359
  6                         10.52       0.00       0.00       6.44       2.81        0.14     2.40   0.267
  7                         10.52       0.00       0.00       4.53       2.64        4.22    54.44   0.250
  8                         10.52       0.00       0.00       6.43       2.85        0.12     2.11   0.271
  9                         10.52       2.80       0.00       6.99       3.91        0.15     2.34   0.294
  10                        10.52       5.29       0.00       7.27       5.22        0.10     1.35   0.330
  11                        10.52       0.00       0.00       6.40       3.05        0.06     1.09   0.290
  13                        10.52      51.32       0.00       9.91      42.51        0.07     0.97   0.687
  14                        10.52      48.85       0.00      10.21      41.20        0.08     1.10   0.694
  16                        10.52      10.10       0.00       7.53       8.07        0.05     0.67   0.391
  17                        10.52       0.00       0.00       6.43       2.89        0.11     1.86   0.275
  18                        10.52       0.00       0.00       6.44       2.85        0.12     2.15   0.271
  19                        10.52       0.00       0.00       6.41       2.99        0.08     1.35   0.284
  20                        10.52       2.70       0.00       6.95       4.01        0.11     1.80   0.303
  21                        10.52       7.37       0.00       7.62       6.46        0.10     1.35   0.361
  22                        10.52       5.51       0.00       7.41       5.53        0.10     1.47   0.345
  23                        10.52       0.00       0.00       6.32       3.37        0.02     0.43   0.320
  24                        10.52       0.00       0.00       6.40       3.03        0.07     1.19   0.288
  25                        10.52       0.00       0.00       6.36       3.21        0.04     0.67   0.305
  26                        10.52       0.00       0.00       6.40       3.05        0.06     1.10   0.290
  27                        10.52       0.00       0.00       6.40       3.06        0.06     1.08   0.291
  28                        10.52       8.43       0.00       7.82       6.41        0.17     2.23   0.338
  29                        10.52       3.52       0.00       7.01       4.31        0.10     1.54   0.307
  30                        10.52      11.05       0.00       8.09       9.15        0.09     1.13   0.424
  31                        10.52       0.00       0.00       6.43       2.90        0.10     1.81   0.275
  32                        10.52       0.00       0.00       6.44       2.81        0.14     2.47   0.267
  33                        10.52       0.00       0.00       6.34       3.30        0.03     0.53   0.313
  34                        10.52       6.17       0.00       7.53       5.72        0.12     1.74   0.343
  35                        10.52       0.00       0.00       6.42       2.94        0.09     1.58   0.279
  36                        10.52       5.56       0.00       7.50       4.72        0.28     4.05   0.294
  37                        10.52       0.00       0.00       6.44       2.84        0.13     2.22   0.270
  38                        10.52       0.00       0.00       6.42       2.95        0.09     1.53   0.280
  39                        10.52       0.00       0.00       6.42       2.91        0.10     1.75   0.276
  40                        10.52       1.52       0.00       6.75       3.42        0.13     2.21   0.284
  41                        10.52       0.00       0.00       6.40       3.06        0.06     1.07   0.291
  42                        10.52       0.00       0.00       6.40       3.02        0.07     1.23   0.287
  43                        10.52       0.00       0.00       6.26       3.60        0.01     0.24   0.342
  44                        10.52      78.61       0.00      12.11      63.40        0.23     3.18   0.711
  45                        10.52       0.00       0.00       6.35       3.25        0.03     0.61   0.308
  46                        10.52       4.57       0.00       7.25       4.93        0.11     1.60   0.327
  47                        10.52       0.00       0.00       6.36       3.22        0.04     0.65   0.306
  48                        10.52       2.26       0.00       6.83       4.08        0.06     1.06   0.319
  49                        10.52       0.00       0.00       6.40       3.03        0.07     1.17   0.288
  50                        10.52       3.68       0.00       7.09       4.66        0.08     1.29   0.328
  51                        10.52       3.04       0.00       6.99       4.28        0.09     1.46   0.315
  52                        10.52       0.00       0.00       6.40       3.03        0.07     1.17   0.288
  53                        10.52       1.56       0.00       6.71       3.73        0.07     1.11   0.309
  54                        10.52       0.00       0.00       6.34       3.31        0.03     0.50   0.315
  55                        10.52       3.35       0.00       6.95       4.95        0.04     0.65   0.357
  56                        10.52       5.06       0.00       7.32       5.13        0.11     1.62   0.330
  57                        10.52       0.00       0.00       6.44       2.81        0.14     2.42   0.267
  58                        10.52       0.00       0.00       6.35       3.24        0.03     0.62   0.308
  59                        10.52       0.00       0.00       6.34       3.31        0.03     0.51   0.314
  60                        10.52       7.38       0.00       7.48       7.62        0.04     0.56   0.426
  61                        10.52       0.00       0.00       6.48       2.49        0.45     6.99   0.236
  62                        10.52       0.00       0.00       6.48       2.47        0.47     7.30   0.235
  63                        10.52       0.00       0.00       6.35       3.26        0.03     0.58   0.310
  64                        10.52       0.00       0.00       6.36       3.20        0.04     0.70   0.304
  65                        10.52       0.00       0.00       6.39       3.09        0.05     0.97   0.294
  
  
  ****************************
  Subcatchment Washoff Summary
  ****************************
  
  ------------------------------------------------------------------------------------------
                                 COD         NH3-N            TN            TP            SS
  Subcatchment                    kg            kg            kg            kg            kg
  ------------------------------------------------------------------------------------------
  1                            7.585         0.000         0.000         0.000         0.000
  2                            0.000         0.000         0.000         0.000         0.000
  3                            0.000         0.000         0.000         0.000         0.000
  4                            7.361         0.000         0.000         0.000         0.000
  5                           21.330         0.000         0.000         0.000         0.000
  6                           12.219         0.000         0.000         0.000         0.000
  7                          317.207         0.000         0.000         0.000         0.000
  8                           10.789         0.000         0.000         0.000         0.000
  9                           19.490         0.000         0.000         0.000         0.000
  10                          19.371         0.000         0.000         0.000         0.000
  11                           5.771         0.000         0.000         0.000         0.000
  13                          24.163         0.000         0.000         0.000         0.000
  14                          22.431         0.000         0.000         0.000         0.000
  16                          19.390         0.000         0.000         0.000         0.000
  17                           9.588         0.000         0.000         0.000         0.000
  18                          10.996         0.000         0.000         0.000         0.000
  19                           7.063         0.000         0.000         0.000         0.000
  20                          15.065         0.000         0.000         0.000         0.000
  21                          20.983         0.000         0.000         0.000         0.000
  22                          17.566         0.000         0.000         0.000         0.000
  23                           2.451         0.000         0.000         0.000         0.000
  24                           6.272         0.000         0.000         0.000         0.000
  25                           3.660         0.000         0.000         0.000         0.000
  26                           5.820         0.000         0.000         0.000         0.000
  27                           5.699         0.000         0.000         0.000         0.000
  28                          39.264         0.000         0.000         0.000         0.000
  29                          18.120         0.000         0.000         0.000         0.000
  30                          20.862         0.000         0.000         0.000         0.000
  31                           9.331         0.000         0.000         0.000         0.000
  32                          12.579         0.000         0.000         0.000         0.000
  33                           2.930         0.000         0.000         0.000         0.000
  34                          21.745         0.000         0.000         0.000         0.000
  35                           8.193         0.000         0.000         0.000         0.000
  36                          47.663         0.000         0.000         0.000         0.000
  37                          11.325         0.000         0.000         0.000         0.000
  38                           7.970         0.000         0.000         0.000         0.000
  39                           9.028         0.000         0.000         0.000         0.000
  40                          15.289         0.000         0.000         0.000         0.000
  41                           5.675         0.000         0.000         0.000         0.000
  42                           6.483         0.000         0.000         0.000         0.000
  43                           1.426         0.000         0.000         0.000         0.000
  44                          54.177         0.000         0.000         0.000         0.000
  45                           3.367         0.000         0.000         0.000         0.000
  46                          17.971         0.000         0.000         0.000         0.000
  47                           3.580         0.000         0.000         0.000         0.000
  48                           8.731         0.000         0.000         0.000         0.000
  49                           6.177         0.000         0.000         0.000         0.000
  50                          12.662         0.000         0.000         0.000         0.000
  51                          13.040         0.000         0.000         0.000         0.000
  52                           6.177         0.000         0.000         0.000         0.000
  53                           8.113         0.000         0.000         0.000         0.000
  54                           2.819         0.000         0.000         0.000         0.000
  55                           6.571         0.000         0.000         0.000         0.000
  56                          19.912         0.000         0.000         0.000         0.000
  57                          12.339         0.000         0.000         0.000         0.000
  58                           3.393         0.000         0.000         0.000         0.000
  59                           2.847         0.000         0.000         0.000         0.000
  60                           8.802         0.000         0.000         0.000         0.000
  61                          34.032         0.000         0.000         0.000         0.000
  62                          35.467         0.000         0.000         0.000         0.000
  63                           3.204         0.000         0.000         0.000         0.000
  64                           3.818         0.000         0.000         0.000         0.000
  65                           5.163         0.000         0.000         0.000         0.000
  ------------------------------------------------------------------------------------------
  System                    1102.520         0.000         0.000         0.000         0.000
  
  
  ******************
  Node Depth Summary
  ******************
  
  ---------------------------------------------------------------------------------
                                 Average  Maximum  Maximum  Time of Max    Reported
                                   Depth    Depth      HGL   Occurrence   Max Depth
  Node                 Type       Meters   Meters   Meters  days hr:min      Meters
  ---------------------------------------------------------------------------------
  WS01000070           JUNCTION     0.00     0.00     0.00     0  00:00        0.00
  WS01000323           JUNCTION     0.00     0.00     0.00     0  00:00        0.00
  WS01000533           JUNCTION     0.00     0.00     6.86     0  00:00        0.00
  WS01005172           JUNCTION     0.00     0.00     0.00     0  00:00        0.00
  WS01005181           JUNCTION     0.00     0.00     0.00     0  00:00        0.00
  WS01009841           JUNCTION     0.00     0.00     0.00     0  00:00        0.00
  WS02000078           JUNCTION     0.00     0.00     0.00     0  00:00        0.00
  WS02000112           JUNCTION     0.00     0.00     0.00     0  00:00        0.00
  WS02000136           JUNCTION     0.00     0.00     0.00     0  00:00        0.00
  WS02001211           JUNCTION     0.43     0.45     5.29     0  02:16        0.45
  WS02001212           JUNCTION     0.37     0.40     5.20     0  02:15        0.40
  WS02001213           JUNCTION     0.47     0.51     5.21     0  02:14        0.51
  WS02003059           JUNCTION     0.44     0.50     5.15     0  02:18        0.50
  WS02003060           JUNCTION     0.51     0.59     5.14     0  02:17        0.59
  WS02003066           JUNCTION     0.20     0.28     5.58     0  02:11        0.27
  WS02003067           JUNCTION     0.33     0.45     5.77     0  02:16        0.43
  WS02003071           JUNCTION     0.57     0.66     5.06     0  02:17        0.66
  WS02003072           JUNCTION     0.49     0.57     4.94     0  02:18        0.57
  WS02003073           JUNCTION     0.59     0.69     4.93     0  02:19        0.69
  WS02003076           JUNCTION     0.55     0.65     4.88     0  02:19        0.65
  WS02003077           JUNCTION     0.13     0.17     5.18     0  02:17        0.17
  WS02003078           JUNCTION     0.04     0.05     6.95     0  02:07        0.05
  WS02003079           JUNCTION     0.12     0.16     7.07     0  02:07        0.16
  WS02003080           JUNCTION     0.23     0.30     5.33     0  02:19        0.30
  WS02003081           JUNCTION     0.30     0.38     5.42     0  02:19        0.38
  WS02003082           JUNCTION     0.29     0.38     5.46     0  02:18        0.38
  WS02003083           JUNCTION     0.33     0.43     5.52     0  02:18        0.43
  WS02003084           JUNCTION     0.34     0.44     5.54     0  02:18        0.44
  WS02003085           JUNCTION     0.27     0.38     5.55     0  02:18        0.38
  WS02003086           JUNCTION     0.29     0.39     5.59     0  02:17        0.39
  WS02003087           JUNCTION     0.31     0.41     5.63     0  02:17        0.41
  WS02003088           JUNCTION     0.26     0.37     5.66     0  02:16        0.37
  WS02003089           JUNCTION     0.20     0.28     5.74     0  02:16        0.27
  WS02003090           JUNCTION     0.24     0.33     5.80     0  02:15        0.32
  WS02003091           JUNCTION     0.14     0.20     6.00     0  02:14        0.20
  WS02003092           JUNCTION     0.01     0.01     7.65     0  01:25        0.01
  WS02003093           JUNCTION     0.02     0.02     7.36     0  02:03        0.02
  WS02003094           JUNCTION     0.11     0.14     7.36     0  02:04        0.14
  WS02003098           JUNCTION     0.07     0.09     7.26     0  02:05        0.09
  WS02003099           JUNCTION     0.13     0.18     7.22     0  02:06        0.18
  WS02003102           JUNCTION     0.12     0.17     7.20     0  02:04        0.17
  WS02003103           JUNCTION     0.14     0.19     7.16     0  02:06        0.19
  WS02003104           JUNCTION     0.13     0.18     7.14     0  02:06        0.18
  WS02003106           JUNCTION     0.13     0.18     7.11     0  02:07        0.18
  WS02003110           JUNCTION     0.13     0.18     7.43     0  02:05        0.18
  WS02003111           JUNCTION     0.13     0.18     7.27     0  02:05        0.18
  WS02003115           JUNCTION     0.16     0.22     7.12     0  02:06        0.22
  WS02003116           JUNCTION     0.19     0.26     6.97     0  02:06        0.26
  WS02003118           JUNCTION     0.16     0.23     6.85     0  02:06        0.23
  WS02003122           JUNCTION     0.26     0.38     6.75     0  02:11        0.38
  WS02003123           JUNCTION     0.19     0.31     6.75     0  02:11        0.31
  WS02003126           JUNCTION     0.11     0.23     6.75     0  02:11        0.23
  WS02003187           JUNCTION     0.28     0.40     6.73     0  02:11        0.40
  WS02003188           JUNCTION     0.33     0.45     6.71     0  02:11        0.45
  WS02003190           JUNCTION     0.33     0.44     6.69     0  02:11        0.44
  WS02003193           JUNCTION     0.32     0.43     6.67     0  02:12        0.43
  WS02003195           JUNCTION     0.31     0.41     6.63     0  02:12        0.41
  WS02003196           JUNCTION     0.33     0.43     6.61     0  02:13        0.43
  WS02003198           JUNCTION     0.31     0.40     6.57     0  02:13        0.40
  WS02003200           JUNCTION     0.21     0.28     6.44     0  02:12        0.28
  WS02003201           JUNCTION     0.21     0.28     6.42     0  02:12        0.28
  WS02003202           JUNCTION     0.22     0.30     6.36     0  02:12        0.30
  WS02003203           JUNCTION     0.14     0.19     6.19     0  02:15        0.19
  WS02003215           JUNCTION     0.14     0.20     7.06     0  02:06        0.20
  WS02004050           JUNCTION     0.36     0.43     4.65     0  02:19        0.42
  WS02004053           JUNCTION     0.00     0.00     0.00     0  00:00        0.00
  WS02004136           JUNCTION     0.18     0.18     6.91     0  01:29        0.18
  WS02004139           JUNCTION     0.36     0.37     5.33     0  02:17        0.37
  WS02004401           JUNCTION     0.34     0.46     6.46     0  02:06        0.46
  WS02004402           JUNCTION     0.35     0.47     6.43     0  02:06        0.46
  WS02004403           JUNCTION     0.34     0.46     6.39     0  02:06        0.46
  WS02004404           JUNCTION     0.43     0.55     6.40     0  02:07        0.55
  WS02004405           JUNCTION     0.43     0.55     6.39     0  02:07        0.55
  WS02004406           JUNCTION     0.40     0.52     6.35     0  02:07        0.52
  WS02004407           JUNCTION     0.38     0.49     6.29     0  02:07        0.49
  WS02004409           JUNCTION     0.37     0.48     6.25     0  02:08        0.47
  WS02004410           JUNCTION     0.36     0.46     6.18     0  02:08        0.46
  WS02004411           JUNCTION     0.33     0.43     6.11     0  02:09        0.43
  WS02004412           JUNCTION     0.28     0.37     6.01     0  02:09        0.36
  WS02004413           JUNCTION     0.29     0.38     5.85     0  02:12        0.38
  WS02004997           JUNCTION     5.67     6.40     8.01     0  03:00        6.34
  WS02005122           JUNCTION     0.07     0.10     9.62     0  02:00        0.10
  WS02005123           JUNCTION     0.06     0.09     9.55     0  02:00        0.09
  WS02005124           JUNCTION     0.06     0.08     9.35     0  02:00        0.08
  WS02005126           JUNCTION     0.10     0.14     9.24     0  02:00        0.14
  WS02005127           JUNCTION     0.09     0.13     9.16     0  02:00        0.13
  WS02005129           JUNCTION     0.09     0.13     9.06     0  02:00        0.13
  WS02005131           JUNCTION     0.11     0.15     8.91     0  02:01        0.15
  WS02005132           JUNCTION     0.14     0.19     8.83     0  02:02        0.19
  WS02005133           JUNCTION     0.13     0.18     8.79     0  02:02        0.18
  WS02005135           JUNCTION     0.12     0.17     8.73     0  02:02        0.17
  WS02005137           JUNCTION     0.15     0.21     8.63     0  02:03        0.21
  WS02005138           JUNCTION     0.16     0.22     8.57     0  02:03        0.22
  WS02005140           JUNCTION     0.12     0.17     8.49     0  02:04        0.17
  WS02005142           JUNCTION     0.15     0.22     8.38     0  02:03        0.22
  WS02005144           JUNCTION     0.15     0.21     8.26     0  02:04        0.21
  WS02005145           JUNCTION     0.19     0.25     8.15     0  02:04        0.25
  WS02005147           JUNCTION     0.14     0.20     8.07     0  02:05        0.20
  WS02005152           JUNCTION     0.16     0.22     7.94     0  02:05        0.22
  WS02005154           JUNCTION     0.12     0.16     7.80     0  02:05        0.16
  WS02005155           JUNCTION     0.17     0.23     7.54     0  02:05        0.23
  WS02005162           JUNCTION     0.13     0.18     8.18     0  02:05        0.18
  WS02005163           JUNCTION     0.13     0.18     8.22     0  02:02        0.18
  WS02005164           JUNCTION     0.13     0.17     8.25     0  02:03        0.17
  WS02005165           JUNCTION     0.10     0.13     8.31     0  02:01        0.13
  WS02005166           JUNCTION     0.10     0.13     8.40     0  02:00        0.13
  WS02005167           JUNCTION     0.12     0.16     8.46     0  02:00        0.16
  WS02005170           JUNCTION     0.09     0.11     8.51     0  02:01        0.11
  WS02005171           JUNCTION     0.09     0.12     8.59     0  02:00        0.12
  WS02005175           JUNCTION     0.09     0.12     8.69     0  02:00        0.12
  WS02005176           JUNCTION     0.08     0.11     8.73     0  02:00        0.11
  WS02005180           JUNCTION     0.09     0.12     8.77     0  02:00        0.12
  WS02005181           JUNCTION     0.08     0.10     8.80     0  02:00        0.10
  WS02005183           JUNCTION     0.05     0.07     8.93     0  02:00        0.07
  WS02005184           JUNCTION     0.06     0.09     9.00     0  01:59        0.09
  WS02005185           JUNCTION     0.05     0.07     9.09     0  01:59        0.07
  WS02005186           JUNCTION     0.05     0.07     9.18     0  01:59        0.07
  WS02005188           JUNCTION     0.14     0.22     8.16     0  02:03        0.22
  WS02005191           JUNCTION     0.18     0.26     8.16     0  02:03        0.26
  WS02005192           JUNCTION     0.19     0.28     8.15     0  02:05        0.28
  WS02005193           JUNCTION     0.19     0.31     8.13     0  02:01        0.31
  WS02005196           JUNCTION     0.19     0.29     8.14     0  02:04        0.29
  WS02006109           JUNCTION     0.40     0.55     7.17     0  02:04        0.55
  WS02006110           JUNCTION     0.37     0.50     7.10     0  02:04        0.49
  WS02006111           JUNCTION     0.19     0.28     6.86     0  02:05        0.28
  WS02006112           JUNCTION     0.37     0.50     6.62     0  02:05        0.50
  WS02006113           JUNCTION     0.32     0.45     7.04     0  02:05        0.44
  WS02006115           JUNCTION     0.33     0.45     6.55     0  02:05        0.43
  WS02006116           JUNCTION     0.35     0.47     6.51     0  02:05        0.47
  WS02006183           JUNCTION     0.00     0.00     0.00     0  00:00        0.00
  WS02006228           JUNCTION     0.40     0.57     7.22     0  02:03        0.55
  WS02006229           JUNCTION     0.37     0.54     7.23     0  02:03        0.52
  WS02006230           JUNCTION     0.35     0.55     7.30     0  02:03        0.54
  WS02006231           JUNCTION     0.27     0.45     7.35     0  02:02        0.44
  WS02006232           JUNCTION     0.26     0.43     7.46     0  02:02        0.38
  WS02006234           JUNCTION     0.26     0.44     7.60     0  02:02        0.40
  WS02006235           JUNCTION     0.31     0.51     7.68     0  02:02        0.49
  WS02006238           JUNCTION     0.31     0.51     7.69     0  02:02        0.50
  WS02006239           JUNCTION     0.32     0.51     7.72     0  02:02        0.50
  WS02006242           JUNCTION     0.31     0.50     7.80     0  02:03        0.49
  WS02006240           JUNCTION     0.27     0.45     7.74     0  02:02        0.45
  WS02006243           JUNCTION     0.23     0.41     7.83     0  02:04        0.41
  WS02006245           JUNCTION     0.23     0.40     7.89     0  02:05        0.40
  WS02006247           JUNCTION     0.26     0.43     7.94     0  02:04        0.43
  WS02006248           JUNCTION     0.21     0.38     7.97     0  02:05        0.38
  WS02006249           JUNCTION     0.24     0.42     8.02     0  02:05        0.42
  WS02006251           JUNCTION     0.23     0.42     8.09     0  02:06        0.42
  WS02006253           JUNCTION     0.17     0.32     8.12     0  02:02        0.32
  WS02618401           JUNCTION     0.00     0.00     0.00     0  00:00        0.00
  WS8802               JUNCTION     0.00     0.00     4.38     0  00:00        0.00
  WSA1649              JUNCTION     0.00     0.00     0.00     0  00:00        0.00
  WSF200               JUNCTION     0.19     0.25     5.35     0  02:12        0.25
  XR-Inflow            JUNCTION     5.53     6.31     8.12     0  03:00        6.23
  WS02004114           JUNCTION     5.63     6.31     7.91     0  03:00        6.29
  outfall-24           OUTFALL      0.10     0.13     5.63     0  03:00        0.13
  outfall-2            OUTFALL      0.00     0.00     7.00     0  00:00        0.00
  outfall-5            OUTFALL      0.00     0.00     7.67     0  00:00        0.00
  outfall-8            OUTFALL      0.00     0.00     8.00     0  00:00        0.00
  outfall-14           OUTFALL      0.00     0.00     7.66     0  00:00        0.00
  outfall-16           OUTFALL      0.00     0.00     8.39     0  00:00        0.00
  outfall-17           OUTFALL      0.00     0.00     8.15     0  00:00        0.00
  outfall-27           OUTFALL      0.00     0.00     7.90     0  00:00        0.00
  outfall-28           OUTFALL      0.00     0.00     7.30     0  00:00        0.00
  67                   OUTFALL      0.00     0.00    10.20     0  00:00        0.00
  12                   OUTFALL      0.36     0.42     0.42     0  02:19        0.42
  XR-storage           STORAGE      6.71     7.35     7.85     0  03:00        7.35
  CC-storage           STORAGE      1.95     3.02     6.20     0  01:38        3.02
  JK-storage           STORAGE      1.92     3.02     6.02     0  01:53        3.01
  
  
  *******************
  Node Inflow Summary
  *******************
  
  -------------------------------------------------------------------------------------------------
                                  Maximum  Maximum                  Lateral       Total        Flow
                                  Lateral    Total  Time of Max      Inflow      Inflow     Balance
                                   Inflow   Inflow   Occurrence      Volume      Volume       Error
  Node                 Type           MLD      MLD  days hr:min    10^6 ltr    10^6 ltr     Percent
  -------------------------------------------------------------------------------------------------
  WS01000070           JUNCTION      0.00     0.00     0  00:00           0           0       0.000 ltr
  WS01000323           JUNCTION      0.00     0.00     0  00:00           0           0       0.000 ltr
  WS01000533           JUNCTION      0.00     0.00     0  00:00           0           0       0.000 ltr
  WS01005172           JUNCTION      0.00     0.00     0  00:00           0           0       0.000 ltr
  WS01005181           JUNCTION      0.00     0.00     0  00:00           0           0       0.000 ltr
  WS01009841           JUNCTION      0.00     0.00     0  00:00           0           0       0.000 ltr
  WS02000078           JUNCTION      0.00     0.00     0  00:00           0           0       0.000 ltr
  WS02000112           JUNCTION      0.00     0.00     0  00:00           0           0       0.000 ltr
  WS02000136           JUNCTION      0.00     0.00     0  00:00           0           0       0.000 ltr
  WS02001211           JUNCTION      0.25    34.25     0  01:31      0.0407        4.89       0.517
  WS02001212           JUNCTION      0.21    34.35     0  01:32      0.0346         4.9       0.286
  WS02001213           JUNCTION      0.30    34.53     0  02:22      0.0489        4.94       0.386
  WS02003059           JUNCTION      0.23    35.04     0  02:22      0.0378        4.96       0.451
  WS02003060           JUNCTION      0.16    85.75     0  02:16      0.0252        8.56       0.362
  WS02003066           JUNCTION      0.08    55.19     0  02:16      0.0122        3.59       0.086
  WS02003067           JUNCTION      0.26    46.97     0  02:10      0.0395        3.58       0.118
  WS02003071           JUNCTION      0.35    81.05     0  02:17      0.0538        8.59       0.389
  WS02003072           JUNCTION      0.24    80.79     0  02:18      0.0382        8.59       0.243
  WS02003073           JUNCTION      0.07   101.47     0  02:18     0.00978        10.1       0.226
  WS02003076           JUNCTION      0.72   103.21     0  02:19        0.12        10.2       0.209
  WS02003077           JUNCTION      0.04    20.91     0  02:17      0.0059         1.5       0.127
  WS02003078           JUNCTION      0.03     5.50     0  02:07     0.00419       0.322      -0.013
  WS02003079           JUNCTION      0.04     4.72     0  02:07     0.00561       0.318       0.209
  WS02003080           JUNCTION      0.08    16.27     0  02:19      0.0113        1.18       0.300
  WS02003081           JUNCTION      0.03    16.22     0  02:19     0.00406        1.17       0.398
  WS02003082           JUNCTION      0.05    16.25     0  02:18     0.00692        1.17       0.381
  WS02003083           JUNCTION      0.02    16.26     0  02:18      0.0027        1.17       0.390
  WS02003084           JUNCTION      0.06    16.23     0  02:18     0.00885        1.17       0.266
  WS02003085           JUNCTION      0.02    16.26     0  02:17     0.00307        1.16       0.204
  WS02003086           JUNCTION      0.04    16.35     0  02:14     0.00599        1.17       0.292
  WS02003087           JUNCTION      0.06    16.48     0  02:14     0.00824        1.16       0.324
  WS02003088           JUNCTION      0.07    16.68     0  02:16      0.0105        1.16       0.252
  WS02003089           JUNCTION      0.08    17.52     0  02:16      0.0113        1.15       0.158
  WS02003090           JUNCTION      0.04    16.87     0  02:15     0.00647        1.14       0.165
  WS02003091           JUNCTION      0.01    16.66     0  02:12     0.00171        1.13       0.064
  WS02003092           JUNCTION      0.07     0.07     0  01:00     0.00989     0.00989       0.391
  WS02003093           JUNCTION      0.02     0.09     0  01:24     0.00306      0.0129       0.994
  WS02003094           JUNCTION      2.39     2.48     0  02:00       0.157        0.17       0.892
  WS02003098           JUNCTION      0.02     2.48     0  02:05     0.00293       0.172       0.495
  WS02003099           JUNCTION      0.07     2.54     0  02:05      0.0109       0.182       1.088
  WS02003102           JUNCTION      2.13     4.63     0  02:03       0.125       0.305       0.488
  WS02003103           JUNCTION      0.02     4.64     0  02:04     0.00239       0.306       0.368
  WS02003104           JUNCTION      0.02     4.65     0  02:05     0.00302       0.308       0.308
  WS02003106           JUNCTION      0.05     4.69     0  02:06     0.00727       0.314       0.393
  WS02003110           JUNCTION      0.06    11.45     0  02:05     0.00906       0.751       0.096
  WS02003111           JUNCTION      0.02    11.05     0  02:05      0.0029       0.753       0.086
  WS02003115           JUNCTION      0.51    11.48     0  02:05      0.0345       0.787       0.087
  WS02003116           JUNCTION      0.08    11.60     0  02:06      0.0118       0.807       0.184
  WS02003118           JUNCTION      1.25    12.78     0  02:06      0.0755       0.881       0.220
  WS02003122           JUNCTION      0.07    12.89     0  02:06      0.0101       0.907       0.330
  WS02003123           JUNCTION      0.06     0.35     0  01:19      0.0093      0.0189       2.393
  WS02003126           JUNCTION      0.03     0.11     0  01:56     0.00529     0.00601       0.588
  WS02003187           JUNCTION      0.06    12.83     0  02:09     0.00906       0.909       0.308
  WS02003188           JUNCTION      0.69    13.31     0  02:09      0.0582       0.965       0.483
  WS02003190           JUNCTION      0.06    13.34     0  02:10     0.00956       0.969       0.453
  WS02003193           JUNCTION      1.11    14.30     0  02:10      0.0633        1.03       0.445
  WS02003195           JUNCTION      0.03    14.31     0  02:11      0.0053        1.03       0.455
  WS02003196           JUNCTION      0.02    14.32     0  02:12     0.00301        1.03       0.481
  WS02003198           JUNCTION      1.37    15.63     0  02:12      0.0998        1.12       0.553
  WS02003200           JUNCTION      0.07    15.73     0  02:14      0.0107        1.13       0.244
  WS02003201           JUNCTION      0.01    15.87     0  02:13     0.00183        1.13       0.092
  WS02003202           JUNCTION      0.02    15.90     0  02:13      0.0031        1.13       0.200
  WS02003203           JUNCTION      0.05    17.58     0  02:12     0.00692        1.13       0.058
  WS02003215           JUNCTION      0.06    11.53     0  02:06     0.00945       0.796       0.076
  WS02004050           JUNCTION      0.72   122.16     0  02:19       0.119        10.3       0.434
  WS02004053           JUNCTION      0.00     0.00     0  00:00           0           0       0.000 ltr
  WS02004136           JUNCTION      0.44    32.92     0  01:29      0.0703        4.81       0.062
  WS02004139           JUNCTION      0.38    33.60     0  01:29      0.0619        4.87       0.360
  WS02004401           JUNCTION      0.05    39.14     0  02:06     0.00897        2.83       0.155
  WS02004402           JUNCTION      0.22    38.95     0  02:06      0.0335        2.86       0.139
  WS02004403           JUNCTION      0.23    38.90     0  02:06      0.0349        2.89       0.107
  WS02004404           JUNCTION      0.24    38.96     0  02:06      0.0365        2.92       0.122
  WS02004405           JUNCTION      1.48    40.15     0  02:07      0.0906        3.01       0.177
  WS02004406           JUNCTION      2.36    42.35     0  02:07        0.19        3.19       0.252
  WS02004407           JUNCTION      0.11    42.15     0  02:07      0.0171         3.2       0.224
  WS02004409           JUNCTION      1.74    43.66     0  02:08       0.143        3.34       0.190
  WS02004410           JUNCTION      0.15    43.71     0  02:08      0.0226        3.35       0.197
  WS02004411           JUNCTION      0.25    43.89     0  02:08      0.0379        3.38       0.171
  WS02004412           JUNCTION      2.49    46.35     0  02:09       0.154        3.53       0.130
  WS02004413           JUNCTION      0.11    46.57     0  02:09      0.0172        3.54       0.116
  WS02004997           JUNCTION      0.42    73.89     0  03:00      0.0693         7.6       0.561
  WS02005122           JUNCTION      1.52     1.52     0  02:00       0.101       0.101       0.124
  WS02005123           JUNCTION      0.06     1.58     0  02:00     0.00977        0.11       0.171
  WS02005124           JUNCTION      0.04     1.61     0  02:00     0.00611       0.116       0.255
  WS02005126           JUNCTION      1.35     2.96     0  02:00      0.0922       0.208       0.321
  WS02005127           JUNCTION      0.05     3.01     0  02:00     0.00848       0.216       0.282
  WS02005129           JUNCTION      1.57     4.57     0  02:00      0.0923       0.308       0.202
  WS02005131           JUNCTION      0.04     4.61     0  02:01     0.00682       0.314       0.271
  WS02005132           JUNCTION      0.05     4.66     0  02:01     0.00808       0.321       0.382
  WS02005133           JUNCTION      0.06     4.71     0  02:02        0.01        0.33       0.327
  WS02005135           JUNCTION      2.28     6.98     0  02:02       0.138       0.467       0.185
  WS02005137           JUNCTION      0.04     7.02     0  02:02     0.00625       0.472       0.283
  WS02005138           JUNCTION      0.06     7.07     0  02:03      0.0101       0.481       0.345
  WS02005140           JUNCTION      0.06     7.13     0  02:03        0.01       0.489       0.203
  WS02005142           JUNCTION      2.52     9.63     0  02:03       0.151       0.639       0.214
  WS02005144           JUNCTION      0.06     9.68     0  02:04     0.00927       0.647       0.207
  WS02005145           JUNCTION      0.04     9.72     0  02:04     0.00618       0.652       0.293
  WS02005147           JUNCTION      0.05     9.77     0  02:05     0.00749       0.658       0.186
  WS02005152           JUNCTION      0.06     9.82     0  02:05     0.00981       0.666       0.215
  WS02005154           JUNCTION      1.13    10.90     0  02:05      0.0688       0.734       0.118
  WS02005155           JUNCTION      0.06    10.96     0  02:05        0.01       0.743       0.153
  WS02005162           JUNCTION      0.08     4.35     0  02:01      0.0127       0.357       0.312
  WS02005163           JUNCTION      0.13     4.27     0  02:01        0.02       0.346       0.316
  WS02005164           JUNCTION      0.67     4.15     0  02:00      0.0411       0.327       0.312
  WS02005165           JUNCTION      0.11     3.52     0  02:00      0.0168       0.287       0.276
  WS02005166           JUNCTION      0.11     3.42     0  02:00      0.0167       0.271       0.292
  WS02005167           JUNCTION      0.64     3.32     0  02:00      0.0409       0.255       0.417
  WS02005170           JUNCTION      0.09     2.70     0  02:00       0.013       0.215       0.313
  WS02005171           JUNCTION      0.02     2.62     0  02:00     0.00326       0.202       0.329
  WS02005175           JUNCTION      0.99     2.60     0  02:00      0.0563         0.2       0.270
  WS02005176           JUNCTION      0.08     1.63     0  02:00      0.0123       0.144       0.407
  WS02005180           JUNCTION      0.11     1.56     0  02:00      0.0172       0.132       0.559
  WS02005181           JUNCTION      0.13     1.44     0  02:00      0.0203       0.116       0.416
  WS02005183           JUNCTION      0.03     1.31     0  01:59     0.00433      0.0956       0.236
  WS02005184           JUNCTION      0.09     1.28     0  01:59       0.013      0.0915       0.256
  WS02005185           JUNCTION      0.07     1.20     0  01:59      0.0111      0.0786       0.173
  WS02005186           JUNCTION      1.12     1.12     0  01:59      0.0676      0.0676       0.106
  WS02005188           JUNCTION      0.03     4.45     0  02:02     0.00497       0.362       0.213
  WS02005191           JUNCTION      0.06     5.03     0  02:03     0.00844       0.371       0.306
  WS02005192           JUNCTION      2.54     7.90     0  02:09       0.158        0.53       0.248
  WS02005193           JUNCTION      0.09     9.20     0  02:08      0.0146       0.567       0.224
  WS02005196           JUNCTION      0.12     8.43     0  02:09       0.019       0.549       0.249
  WS02006109           JUNCTION      0.08    39.11     0  02:03      0.0135        2.55       0.230
  WS02006110           JUNCTION      0.08    38.17     0  02:04      0.0132        2.56       0.223
  WS02006111           JUNCTION      0.24    41.47     0  02:05      0.0366        2.76       0.050
  WS02006112           JUNCTION      0.18    41.22     0  02:05      0.0273        2.78       0.173
  WS02006113           JUNCTION      2.63    40.24     0  02:04       0.169        2.73       0.182
  WS02006115           JUNCTION      0.08    40.20     0  02:05      0.0134        2.79       0.170
  WS02006116           JUNCTION      0.24    39.51     0  02:05       0.036        2.82       0.168
  WS02006183           JUNCTION      0.00     0.00     0  00:00           0           0       0.000 ltr
  WS02006228           JUNCTION      3.34    39.46     0  02:03       0.263        2.54       0.165
  WS02006229           JUNCTION      0.13    37.85     0  02:03        0.02        2.29       0.135
  WS02006230           JUNCTION      0.07    38.50     0  02:03      0.0116        2.27       0.131
  WS02006231           JUNCTION      0.13    39.46     0  02:02      0.0205        2.26       0.076
  WS02006232           JUNCTION      1.82    40.92     0  02:02       0.112        2.24       0.082
  WS02006234           JUNCTION      0.14    39.65     0  02:02      0.0216        2.13       0.089
  WS02006235           JUNCTION      0.14    39.94     0  02:02      0.0223        2.11       0.042
  WS02006238           JUNCTION      0.15    40.30     0  02:02      0.0235        2.09       0.100
  WS02006239           JUNCTION      0.11    27.88     0  02:04      0.0174        1.51       0.188
  WS02006242           JUNCTION      0.08    27.25     0  02:04      0.0129        1.48       0.243
  WS02006240           JUNCTION      0.06    27.59     0  02:05     0.00992        1.49       0.148
  WS02006243           JUNCTION      0.17    27.06     0  02:06      0.0269        1.47       0.137
  WS02006245           JUNCTION      0.07    26.90     0  02:06      0.0113        1.45       0.116
  WS02006247           JUNCTION      1.30    26.78     0  02:06       0.115        1.44       0.133
  WS02006248           JUNCTION      0.12    25.46     0  02:07      0.0192        1.32       0.073
  WS02006249           JUNCTION      0.19    25.31     0  02:06      0.0286        1.31       0.168
  WS02006251           JUNCTION      0.71    25.41     0  02:02      0.0508        1.28       0.124
  WS02006253           JUNCTION      0.11    24.65     0  02:02      0.0173        1.23       0.021
  WS02618401           JUNCTION      0.00     0.00     0  00:00           0           0       0.000 ltr
  WS8802               JUNCTION      0.00     0.00     0  00:00           0           0       0.000 ltr
  WSA1649              JUNCTION      0.00     0.00     0  00:00           0           0       0.000 ltr
  WSF200               JUNCTION      0.14    51.95     0  02:12      0.0216        3.61       0.037
  XR-Inflow            JUNCTION     73.48    73.48     0  03:00        7.55        7.55       0.306
  WS02004114           JUNCTION      0.57    74.43     0  03:00      0.0916        7.64       0.309
  outfall-24           OUTFALL       0.00    41.95     0  03:00           0        2.78       0.000
  outfall-2            OUTFALL       0.00     0.00     0  00:00           0           0       0.000 ltr
  outfall-5            OUTFALL       0.00     0.00     0  00:00           0           0       0.000 ltr
  outfall-8            OUTFALL       0.00     0.00     0  00:00           0           0       0.000 ltr
  outfall-14           OUTFALL       0.00     0.00     0  00:00           0           0       0.000 ltr
  outfall-16           OUTFALL       0.00     0.00     0  00:00           0           0       0.000 ltr
  outfall-17           OUTFALL       0.00     0.00     0  00:00           0           0       0.000 ltr
  outfall-27           OUTFALL       0.00     0.00     0  00:00           0           0       0.000 ltr
  outfall-28           OUTFALL       0.00     0.00     0  00:00           0           0       0.000 ltr
  67                   OUTFALL       0.00     0.00     0  00:00           0           0       0.000 ltr
  12                   OUTFALL       0.00   102.87     0  02:19           0        10.2       0.000
  XR-storage           STORAGE       0.00    74.43     0  03:00           0        7.62       0.571
  CC-storage           STORAGE       8.68     8.68     0  02:00       0.734       0.734       0.001
  JK-storage           STORAGE       8.30     8.30     0  02:08       0.646       0.646       0.001
  
  
  **********************
  Node Surcharge Summary
  **********************
  
  Surcharging occurs when water rises above the top of the highest conduit.
  ---------------------------------------------------------------------
                                               Max. Height   Min. Depth
                                   Hours       Above Crown    Below Rim
  Node                 Type      Surcharged         Meters       Meters
  ---------------------------------------------------------------------
  WS01000070           JUNCTION        4.00          0.000        0.000
  WS01000323           JUNCTION        4.00          0.000        0.000
  WS01000533           JUNCTION        4.00          0.000        2.147
  WS01005172           JUNCTION        4.00          0.000        0.000
  WS01005181           JUNCTION        4.00          0.000        0.000
  WS01009841           JUNCTION        4.00          0.000        0.000
  WS02000078           JUNCTION        4.00          0.000        0.000
  WS02000112           JUNCTION        4.00          0.000        0.000
  WS02000136           JUNCTION        4.00          0.000        0.000
  WS02004053           JUNCTION        4.00          0.000        0.000
  WS02004997           JUNCTION        2.23          5.499        0.501
  WS02006183           JUNCTION        4.00          0.000        0.000
  WS02618401           JUNCTION        4.00          0.000        0.000
  WS8802               JUNCTION        4.00          0.000        4.942
  WSA1649              JUNCTION        4.00          0.000        0.000
  XR-Inflow            JUNCTION        2.21          5.411        0.239
  WS02004114           JUNCTION        2.23          5.415        1.100
  
  
  *********************
  Node Flooding Summary
  *********************
  
  No nodes were flooded.
  
  
  **********************
  Storage Volume Summary
  **********************
  
  --------------------------------------------------------------------------------------------------
                         Average     Avg  Evap Exfil       Maximum     Max    Time of Max    Maximum
                          Volume    Pcnt  Pcnt  Pcnt        Volume    Pcnt     Occurrence    Outflow
  Storage Unit           1000 m3    Full  Loss  Loss       1000 m3    Full    days hr:min        MLD
  --------------------------------------------------------------------------------------------------
  XR-storage               0.054      87     0     0         0.060      95       0  03:00      74.43
  CC-storage               0.055      35     0     0         0.085      54       0  01:38      17.28
  JK-storage               0.054      40     0     0         0.085      63       0  01:53      17.28
  
  
  ***********************
  Outfall Loading Summary
  ***********************
  
  ---------------------------------------------------------------------------------------------------------------------------------
                         Flow       Avg       Max       Total         Total         Total         Total         Total         Total
                         Freq      Flow      Flow      Volume           COD         NH3-N            TN            TP            SS
  Outfall Node           Pcnt       MLD       MLD    10^6 ltr            kg            kg            kg            kg            kg
  ---------------------------------------------------------------------------------------------------------------------------------
  outfall-24            88.45     31.93     41.95       2.778       294.555         0.000         0.000         0.000         0.000
  outfall-2              0.00      0.00      0.00       0.000         0.000         0.000         0.000         0.000         0.000
  outfall-5              0.00      0.00      0.00       0.000         0.000         0.000         0.000         0.000         0.000
  outfall-8              0.00      0.00      0.00       0.000         0.000         0.000         0.000         0.000         0.000
  outfall-14             0.00      0.00      0.00       0.000         0.000         0.000         0.000         0.000         0.000
  outfall-16             0.00      0.00      0.00       0.000         0.000         0.000         0.000         0.000         0.000
  outfall-17             0.00      0.00      0.00       0.000         0.000         0.000         0.000         0.000         0.000
  outfall-27             0.00      0.00      0.00       0.000         0.000         0.000         0.000         0.000         0.000
  outfall-28             0.00      0.00      0.00       0.000         0.000         0.000         0.000         0.000         0.000
  67                     0.00      0.00      0.00       0.000         0.000         0.000         0.000         0.000         0.000
  12                    99.99     79.29    102.87      10.233      1362.427         0.000         0.000         0.000         0.000
  ---------------------------------------------------------------------------------------------------------------------------------
  System                17.13    111.21    139.06      13.012      1656.982         0.000         0.000         0.000         0.000
  
  
  ********************
  Link Flow Summary
  ********************
  
  -----------------------------------------------------------------------------
                                 Maximum  Time of Max   Maximum    Max/    Max/
                                  |Flow|   Occurrence   |Veloc|    Full    Full
  Link                 Type          MLD  days hr:min     m/sec    Flow   Depth
  -----------------------------------------------------------------------------
  WSL49                CONDUIT    102.49     0  02:19      1.99    1.27    0.56
  WSL50                CONDUIT     16.28     0  02:19      1.85    1.12    0.39
  WSL51                CONDUIT     16.20     0  02:19      1.15    1.65    0.56
  WSL52                CONDUIT     16.20     0  02:19      1.00    0.75    0.63
  WSL53                CONDUIT     16.21     0  02:18      0.93    1.68    0.67
  WSL54                CONDUIT     16.25     0  02:18      0.86    1.30    0.72
  WSL55                CONDUIT     16.18     0  02:18      0.92    0.43    0.68
  WSL77                CONDUIT     16.24     0  02:17      0.99    0.85    0.64
  WSL78                CONDUIT     16.32     0  02:14      0.95    1.07    0.67
  WSL79                CONDUIT     16.44     0  02:14      0.98    0.56    0.65
  WSL80                CONDUIT     16.62     0  02:16      1.27    0.38    0.53
  WSL81                CONDUIT     17.45     0  02:16      1.49    1.29    0.49
  WSL82                CONDUIT     16.84     0  02:15      1.70    0.22    0.43
  WSL83                CONDUIT     16.65     0  02:12      2.51    0.21    0.32
  WSL84                CONDUIT     11.40     0  02:05      1.51    0.35    0.35
  WSL85                CONDUIT      0.40     0  01:18      0.40    0.01    0.68
  WSL86                CONDUIT      0.08     0  01:56      0.20    0.00    0.53
  WSL122               CONDUIT     13.32     0  02:11      0.70    1.33    0.73
  WSL123               CONDUIT     17.54     0  02:12      1.91    0.65    0.40
  WSL144               CONDUIT     12.78     0  02:09      0.70    0.50    0.71
  WSL145               CONDUIT     13.28     0  02:10      0.68    1.25    0.75
  WSL146               CONDUIT     14.28     0  02:11      0.78    1.05    0.70
  WSL147               CONDUIT     14.30     0  02:12      0.78    0.74    0.70
  WSL148               CONDUIT     14.31     0  02:12      0.79    1.36    0.69
  WSL149               CONDUIT     15.67     0  02:14      1.08    2.05    0.57
  WSL150               CONDUIT     15.86     0  02:13      1.42    0.52    0.47
  WSL151               CONDUIT     15.88     0  02:13      1.42    0.41    0.48
  WSL500               CONDUIT      9.83     0  02:05      1.48    0.32    0.32
  WSL502               CONDUIT     10.90     0  02:05      1.54    0.16    0.33
  WSL508               CONDUIT      4.42     0  02:02      0.75    0.16    0.33
  WSL509               CONDUIT      4.28     0  02:01      0.76    0.19    0.29
  WSL551               CONDUIT      4.57     0  02:01      1.05    0.11    0.23
  WSL553               CONDUIT      4.61     0  02:01      0.81    0.13    0.28
  WSL554               CONDUIT      4.66     0  02:02      0.73    0.24    0.31
  WSL555               CONDUIT      4.71     0  02:02      0.80    0.20    0.29
  WSL1465              CONDUIT     36.04     0  02:16      1.42    0.33    0.54
  WSL1472              CONDUIT     80.57     0  02:18      1.62    0.92    0.51
  WSL1475              CONDUIT    121.44     0  02:19      2.68    1.30    0.38
  WSL1476              CONDUIT     20.79     0  02:17      0.90    0.10    0.54
  WSL1477              CONDUIT      5.48     0  02:07      1.85    0.22    0.18
  WSL1490              CONDUIT     34.15     0  01:32      1.36    0.55    0.42
  WSL1491              CONDUIT     34.24     0  02:22      1.30    0.20    0.45
  WSL1492              CONDUIT     34.81     0  02:22      1.24    0.54    0.50
  WSL1506              CONDUIT      0.07     0  01:24      0.40    0.00    0.02
  WSL1507              CONDUIT      0.09     0  01:59      0.21    0.00    0.10
  WSL1508              CONDUIT      2.47     0  02:05      0.62    0.07    0.15
  WSL1512              CONDUIT      2.48     0  02:05      0.45    0.02    0.13
  WSL1513              CONDUIT      2.55     0  02:07      0.37    0.15    0.22
  WSL1515              CONDUIT     55.12     0  02:16      2.32    0.54    0.29
  WSL1516              CONDUIT      4.87     0  02:07      1.73    0.02    0.19
  WSL1518              CONDUIT      4.63     0  02:04      0.65    0.09    0.22
  WSL1519              CONDUIT      4.65     0  02:06      0.63    0.12    0.23
  WSL1521              CONDUIT      4.69     0  02:07      0.69    0.13    0.21
  WSL1525              CONDUIT     11.03     0  02:05      1.77    0.21    0.30
  WSL1526              CONDUIT     11.02     0  02:06      1.54    0.18    0.33
  WSL1529              CONDUIT     11.48     0  02:06      1.47    0.30    0.36
  WSL1530              CONDUIT     11.60     0  02:06      1.40    0.62    0.49
  WSL1532              CONDUIT     12.77     0  02:06      1.08    0.31    0.50
  WSL1543              CONDUIT      4.63     0  02:05      0.61    0.14    0.23
  WSL1545              CONDUIT     12.77     0  02:09      0.79    0.53    0.65
  WSL1641              CONDUIT      4.16     0  02:01      0.72    0.17    0.29
  WSL1642              CONDUIT      3.50     0  02:01      0.74    0.10    0.25
  WSL1643              CONDUIT      3.41     0  02:00      0.88    0.10    0.22
  WSL1644              CONDUIT      3.31     0  02:00      0.73    0.17    0.24
  WSL1646              CONDUIT      2.69     0  02:01      0.65    0.08    0.23
  WSL1647              CONDUIT      2.62     0  02:01      0.77    0.09    0.20
  WSL1652              CONDUIT      1.63     0  02:00      0.57    0.10    0.22
  WSL1764              CONDUIT     11.53     0  02:06      1.30    0.21    0.39
  WSL1931              CONDUIT      1.55     0  02:00      0.54    0.13    0.23
  WSL1932              CONDUIT      1.44     0  02:00      0.50    0.09    0.22
  WSL1934              CONDUIT      1.31     0  02:00      0.65    0.05    0.18
  WSL1935              CONDUIT      1.28     0  01:59      0.75    0.07    0.16
  WSL1961              CONDUIT     33.22     0  01:29      2.59    0.07    0.28
  WSL1964              CONDUIT     34.00     0  01:31      1.20    0.18    0.34
  WSL2010              CONDUIT     38.70     0  02:06      1.25    0.49    0.47
  WSL2011              CONDUIT     38.75     0  02:06      1.13    0.25    0.50
  WSL2012              CONDUIT     38.75     0  02:07      1.02    0.59    0.55
  WSL2013              CONDUIT     39.99     0  02:07      1.09    0.99    0.53
  WSL2014              CONDUIT     42.05     0  02:07      1.22    0.67    0.51
  WSL2015              CONDUIT     41.93     0  02:08      1.29    0.56    0.48
  WSL2016              CONDUIT     43.58     0  02:08      1.40    0.50    0.47
  WSL2017              CONDUIT     43.68     0  02:08      1.51    0.53    0.44
  WSL2018              CONDUIT     46.47     0  02:09      2.00    0.28    0.38
  WSL2019              CONDUIT     46.75     0  02:10      1.84    0.28    0.41
  WSL2028              CONDUIT     38.76     0  02:06      1.25    0.41    0.47
  WSL2029              CONDUIT     43.98     0  02:09      1.76    0.56    0.40
  WSL2031              CONDUIT      1.20     0  01:59      0.71    0.04    0.16
  WSL2032              CONDUIT      1.12     0  01:59      0.83    0.08    0.18
  WSL2034              CONDUIT      4.98     0  02:03      0.66    0.15    0.40
  WSL2037              CONDUIT      5.50     0  02:09      0.61    0.28    0.45
  WSL2038              CONDUIT      8.32     0  02:09      0.88    0.41    0.48
  WSL2039              CONDUIT     12.83     0  02:08      1.52    0.66    0.53
  WSL2041              CONDUIT      9.12     0  02:08      1.02    0.45    0.50
  WSL2124              CONDUIT      6.98     0  02:02      1.04    0.17    0.32
  WSL2126              CONDUIT      7.02     0  02:03      0.89    0.27    0.36
  WSL2127              CONDUIT      7.07     0  02:03      1.05    0.38    0.32
  WSL2128              CONDUIT      7.13     0  02:04      1.05    0.17    0.32
  WSL2130              CONDUIT      9.63     0  02:04      1.24    0.29    0.35
  WSL2146              CONDUIT      9.68     0  02:04      1.13    0.25    0.38
  WSL2147              CONDUIT      9.72     0  02:05      1.15    0.52    0.38
  WSL2148              CONDUIT      9.77     0  02:05      1.30    0.24    0.35
  WSL2294              CONDUIT     38.09     0  02:04      1.27    1.28    0.65
  WSL2295              CONDUIT     37.65     0  02:04      1.46    1.69    0.58
  WSL2296              CONDUIT     41.06     0  02:05      1.99    0.23    0.49
  WSL2297              CONDUIT     40.12     0  02:05      1.28    0.77    0.47
  WSL2298              CONDUIT     41.26     0  02:05      2.27    1.90    0.44
  WSL2301              CONDUIT     39.30     0  02:05      1.30    0.36    0.46
  WSL2302              CONDUIT     39.09     0  02:06      1.26    0.48    0.47
  WSL2357              CONDUIT      1.52     0  02:00      0.91    0.27    0.32
  WSL2358              CONDUIT      1.58     0  02:00      1.11    0.18    0.28
  WSL2359              CONDUIT      1.61     0  02:00      0.58    0.06    0.22
  WSL2361              CONDUIT      2.96     0  02:00      0.83    0.17    0.26
  WSL2362              CONDUIT      3.01     0  02:01      0.86    0.14    0.26
  WSL2441              CONDUIT     39.03     0  02:03      1.22    1.00    0.69
  WSL2442              CONDUIT     37.74     0  02:03      1.38    0.97    0.77
  WSL2443              CONDUIT     38.43     0  02:03      1.54    0.60    0.70
  WSL2444              CONDUIT     39.34     0  02:02      1.84    0.62    0.62
  WSL2446              CONDUIT     39.12     0  02:02      1.86    0.67    0.61
  WSL2447              CONDUIT     39.53     0  02:02      1.70    2.03    0.67
  WSL2448              CONDUIT     39.81     0  02:02      1.54    1.12    0.73
  WSL2449              CONDUIT     28.96     0  02:23      1.31    1.01    0.73
  WSL2450              CONDUIT     27.78     0  02:04      1.28    0.58    0.68
  WSL2451              CONDUIT     27.53     0  02:05      1.23    1.79    0.67
  WSL2452              CONDUIT     27.17     0  02:04      1.27    0.52    0.64
  WSL2454              CONDUIT     26.91     0  02:06      1.47    0.63    0.58
  WSL2478              CONDUIT     26.83     0  02:06      1.32    0.95    0.60
  WSL2479              CONDUIT     25.48     0  02:06      1.28    0.48    0.58
  WSL2480              CONDUIT     25.35     0  02:07      1.30    1.17    0.57
  WSL2482              CONDUIT     25.14     0  02:06      1.27    0.65    0.60
  WSL2484              CONDUIT     24.71     0  02:02      1.83    0.35    0.53
  WSL2493              CONDUIT     37.11     0  02:03      1.17    0.62    0.69
  WSL2867              CONDUIT     51.82     0  02:12      3.36    0.11    0.22
  WSL2868              CONDUIT     49.66     0  02:16      1.67    0.09    0.35
  5                    CONDUIT      2.60     0  02:00      0.83    0.12    0.24
  WSL348               CONDUIT     73.48     0  03:00      1.88    0.67    1.00
  WSL175               CONDUIT     73.89     0  03:00      2.29    2.49    1.00
  WSL1467              CONDUIT     80.74     0  02:17      1.59    0.43    0.52
  WSL1473              CONDUIT     80.77     0  02:18      1.67    0.33    0.52
  XRpipe               CONDUIT     74.43     0  03:00      2.54    0.18    1.00
  8                    CONDUIT      0.00     0  00:00      0.00    0.00    0.00
  19                   CONDUIT      0.00     0  00:00      0.00    0.00    0.00
  17                   CONDUIT      0.00     0  00:00      0.00    0.00    0.00
  4                    CONDUIT      0.00     0  00:00      0.00    0.00    0.00
  outletpipe           CONDUIT     41.95     0  03:00     12.17    0.14    0.26
  11                   CONDUIT      0.00     0  00:00      0.00    0.00    0.00
  20                   CONDUIT      0.00     0  00:00      0.00    0.00    0.00
  1                    CONDUIT      0.00     0  00:00      0.00    0.00    0.00
  28                   CONDUIT      0.00     0  00:00      0.00    0.00    0.00
  30                   CONDUIT      0.00     0  00:00      0.00    0.00    0.00
  2                    CONDUIT    102.87     0  02:19      3.77    0.37    0.42
  XR-Pump-1            PUMP         8.12     0  00:02              1.00
  XR-Pump-3            PUMP         8.12     0  00:09              1.00
  XR-Pump-2            PUMP         8.12     0  00:04              1.00
  XR-Pump-4            PUMP         8.12     0  01:29              1.00
  CC-Pump-1            PUMP        17.28     0  01:05              1.00
  CC-Pump-2            PUMP         0.00     0  00:00              0.00
  JK-Pump-1            PUMP        17.28     0  01:30              1.00
  JK-Pump-2            PUMP         0.00     0  00:00              0.00
  
  
  ***************************
  Flow Classification Summary
  ***************************
  
  -------------------------------------------------------------------------------------
                      Adjusted    ---------- Fraction of Time in Flow Class ---------- 
                       /Actual         Up    Down  Sub   Sup   Up    Down  Norm  Inlet 
  Conduit               Length    Dry  Dry   Dry   Crit  Crit  Crit  Crit  Ltd   Ctrl  
  -------------------------------------------------------------------------------------
  WSL49                   1.00   0.00  0.00  0.00  1.00  0.00  0.00  0.00  0.00  0.00
  WSL50                   1.00   0.00  0.00  0.00  0.03  0.97  0.00  0.00  0.00  0.00
  WSL51                   1.00   0.00  0.00  0.00  1.00  0.00  0.00  0.00  0.01  0.00
  WSL52                   1.00   0.00  0.00  0.00  1.00  0.00  0.00  0.00  0.10  0.00
  WSL53                   1.00   0.00  0.00  0.00  1.00  0.00  0.00  0.00  0.01  0.00
  WSL54                   1.00   0.00  0.00  0.00  1.00  0.00  0.00  0.00  0.00  0.00
  WSL55                   1.00   0.00  0.00  0.00  1.00  0.00  0.00  0.00  0.21  0.00
  WSL77                   1.00   0.00  0.00  0.00  1.00  0.00  0.00  0.00  0.00  0.00
  WSL78                   1.00   0.00  0.00  0.00  1.00  0.00  0.00  0.00  0.00  0.00
  WSL79                   1.00   0.00  0.00  0.00  1.00  0.00  0.00  0.00  0.34  0.00
  WSL80                   1.00   0.00  0.00  0.00  1.00  0.00  0.00  0.00  0.48  0.00
  WSL81                   1.00   0.00  0.00  0.00  1.00  0.00  0.00  0.00  0.00  0.00
  WSL82                   1.00   0.00  0.00  0.00  0.07  0.93  0.00  0.00  0.76  0.00
  WSL83                   1.00   0.00  0.00  0.00  0.00  1.00  0.00  0.00  0.55  0.00
  WSL84                   1.00   0.00  0.00  0.00  0.01  0.99  0.00  0.00  0.04  0.00
  WSL85                   1.00   0.00  0.00  0.00  1.00  0.00  0.00  0.00  0.12  0.00
  WSL86                   1.00   0.00  0.00  0.00  1.00  0.00  0.00  0.00  0.44  0.00
  WSL122                  1.00   0.00  0.00  0.00  1.00  0.00  0.00  0.00  0.00  0.00
  WSL123                  1.00   0.00  0.00  0.00  0.02  0.98  0.00  0.00  0.02  0.00
  WSL144                  1.00   0.00  0.00  0.00  1.00  0.00  0.00  0.00  0.26  0.00
  WSL145                  1.00   0.00  0.00  0.00  1.00  0.00  0.00  0.00  0.01  0.00
  WSL146                  1.00   0.00  0.00  0.00  1.00  0.00  0.00  0.00  0.03  0.00
  WSL147                  1.00   0.00  0.00  0.00  1.00  0.00  0.00  0.00  0.04  0.00
  WSL148                  1.00   0.00  0.00  0.00  1.00  0.00  0.00  0.00  0.00  0.00
  WSL149                  1.00   0.00  0.00  0.00  1.00  0.00  0.00  0.00  0.01  0.00
  WSL150                  1.00   0.00  0.00  0.00  0.58  0.42  0.00  0.00  0.00  0.00
  WSL151                  1.00   0.00  0.00  0.00  0.87  0.13  0.00  0.00  0.13  0.00
  WSL500                  1.00   0.00  0.00  0.00  0.01  0.99  0.00  0.00  0.00  0.00
  WSL502                  1.00   0.00  0.00  0.00  0.01  0.99  0.00  0.00  1.00  0.00
  WSL508                  1.00   0.00  0.00  0.00  1.00  0.00  0.00  0.00  0.04  0.00
  WSL509                  1.00   0.00  0.00  0.00  1.00  0.00  0.00  0.00  0.02  0.00
  WSL551                  1.00   0.00  0.00  0.00  0.27  0.73  0.00  0.00  0.75  0.00
  WSL553                  1.00   0.00  0.00  0.00  1.00  0.00  0.00  0.00  1.00  0.00
  WSL554                  1.00   0.00  0.00  0.00  1.00  0.00  0.00  0.00  0.23  0.00
  WSL555                  1.00   0.00  0.00  0.00  1.00  0.00  0.00  0.00  0.00  0.00
  WSL1465                 1.00   0.00  0.00  0.00  1.00  0.00  0.00  0.00  0.05  0.00
  WSL1472                 1.00   0.00  0.00  0.00  1.00  0.00  0.00  0.00  0.00  0.00
  WSL1475                 1.00   0.00  0.00  0.00  0.25  0.75  0.00  0.00  0.01  0.00
  WSL1476                 1.00   0.00  0.00  0.00  1.00  0.00  0.00  0.00  1.00  0.00
  WSL1477                 1.00   0.00  0.00  0.00  0.00  1.00  0.00  0.00  0.13  0.00
  WSL1490                 1.00   0.00  0.00  0.00  1.00  0.00  0.00  0.00  0.00  0.00
  WSL1491                 1.00   0.00  0.00  0.00  1.00  0.00  0.00  0.00  0.02  0.00
  WSL1492                 1.00   0.00  0.00  0.00  1.00  0.00  0.00  0.00  0.00  0.00
  WSL1506                 1.00   0.00  0.00  0.00  1.00  0.00  0.00  0.00  0.99  0.00
  WSL1507                 1.00   0.00  0.00  0.00  1.00  0.00  0.00  0.00  0.91  0.00
  WSL1508                 1.00   0.00  0.00  0.00  1.00  0.00  0.00  0.00  0.00  0.00
  WSL1512                 1.00   0.00  0.00  0.00  1.00  0.00  0.00  0.00  1.00  0.00
  WSL1513                 1.00   0.00  0.00  0.00  1.00  0.00  0.00  0.00  0.00  0.00
  WSL1515                 1.00   0.00  0.00  0.00  0.03  0.97  0.00  0.00  0.01  0.00
  WSL1516                 1.00   0.00  0.00  0.00  0.00  1.00  0.00  0.00  1.00  0.00
  WSL1518                 1.00   0.00  0.00  0.00  1.00  0.00  0.00  0.00  0.68  0.00
  WSL1519                 1.00   0.00  0.00  0.00  1.00  0.00  0.00  0.00  0.35  0.00
  WSL1521                 1.00   0.00  0.00  0.00  1.00  0.00  0.00  0.00  0.02  0.00
  WSL1525                 1.00   0.00  0.00  0.00  0.00  1.00  0.00  0.00  0.18  0.00
  WSL1526                 1.00   0.00  0.00  0.00  0.00  1.00  0.00  0.00  0.59  0.00
  WSL1529                 1.00   0.00  0.00  0.00  0.00  1.00  0.00  0.00  0.93  0.00
  WSL1530                 1.00   0.00  0.00  0.00  0.09  0.91  0.00  0.00  0.00  0.00
  WSL1532                 1.00   0.00  0.00  0.00  1.00  0.00  0.00  0.00  1.00  0.00
  WSL1543                 1.00   0.00  0.00  0.00  1.00  0.00  0.00  0.00  0.02  0.00
  WSL1545                 1.00   0.00  0.00  0.00  1.00  0.00  0.00  0.00  0.05  0.00
  WSL1641                 1.00   0.00  0.00  0.00  1.00  0.00  0.00  0.00  0.39  0.00
  WSL1642                 1.00   0.00  0.00  0.00  1.00  0.00  0.00  0.00  0.98  0.00
  WSL1643                 1.00   0.00  0.00  0.00  1.00  0.00  0.00  0.00  0.49  0.00
  WSL1644                 1.00   0.00  0.00  0.00  1.00  0.00  0.00  0.00  0.02  0.00
  WSL1646                 1.00   0.00  0.00  0.00  1.00  0.00  0.00  0.00  0.99  0.00
  WSL1647                 1.00   0.00  0.00  0.00  1.00  0.00  0.00  0.00  0.02  0.00
  WSL1652                 1.00   0.00  0.00  0.00  1.00  0.00  0.00  0.00  0.49  0.00
  WSL1764                 1.00   0.00  0.00  0.00  0.21  0.79  0.00  0.00  0.34  0.00
  WSL1931                 1.00   0.00  0.00  0.00  1.00  0.00  0.00  0.00  0.00  0.00
  WSL1932                 1.00   0.00  0.00  0.00  1.00  0.00  0.00  0.00  0.99  0.00
  WSL1934                 1.00   0.00  0.00  0.00  1.00  0.00  0.00  0.00  1.00  0.00
  WSL1935                 1.00   0.00  0.00  0.00  0.75  0.25  0.00  0.00  0.00  0.00
  WSL1961                 1.00   0.00  0.00  0.00  0.00  1.00  0.00  0.00  0.99  0.00
  WSL1964                 1.00   0.00  0.00  0.00  1.00  0.00  0.00  0.00  0.01  0.00
  WSL2010                 1.00   0.00  0.00  0.00  1.00  0.00  0.00  0.00  0.00  0.00
  WSL2011                 1.00   0.00  0.00  0.00  1.00  0.00  0.00  0.00  0.13  0.00
  WSL2012                 1.00   0.00  0.00  0.00  1.00  0.00  0.00  0.00  0.01  0.00
  WSL2013                 1.00   0.00  0.00  0.00  1.00  0.00  0.00  0.00  0.00  0.00
  WSL2014                 1.00   0.00  0.00  0.00  1.00  0.00  0.00  0.00  0.00  0.00
  WSL2015                 1.00   0.00  0.00  0.00  1.00  0.00  0.00  0.00  0.02  0.00
  WSL2016                 1.00   0.00  0.00  0.00  1.00  0.00  0.00  0.00  0.01  0.00
  WSL2017                 1.00   0.00  0.00  0.00  1.00  0.00  0.00  0.00  0.04  0.00
  WSL2018                 1.00   0.00  0.00  0.00  0.00  1.00  0.00  0.00  0.20  0.00
  WSL2019                 1.00   0.00  0.00  0.00  0.05  0.95  0.00  0.00  0.11  0.00
  WSL2028                 1.00   0.00  0.00  0.00  1.00  0.00  0.00  0.00  0.07  0.00
  WSL2029                 1.00   0.00  0.00  0.00  0.10  0.90  0.00  0.00  0.00  0.00
  WSL2031                 1.00   0.00  0.00  0.00  1.00  0.00  0.00  0.00  1.00  0.00
  WSL2032                 1.00   0.00  0.00  0.00  0.27  0.73  0.00  0.00  0.77  0.00
  WSL2034                 1.00   0.00  0.00  0.00  1.00  0.00  0.00  0.00  0.07  0.00
  WSL2037                 1.00   0.00  0.00  0.00  1.00  0.00  0.00  0.00  0.03  0.00
  WSL2038                 1.00   0.00  0.00  0.00  1.00  0.00  0.00  0.00  0.05  0.00
  WSL2039                 1.00   0.00  0.00  0.00  0.54  0.46  0.00  0.00  0.01  0.00
  WSL2041                 1.00   0.00  0.00  0.00  1.00  0.00  0.00  0.00  0.03  0.00
  WSL2124                 1.00   0.00  0.00  0.00  1.00  0.00  0.00  0.00  0.75  0.00
  WSL2126                 1.00   0.00  0.00  0.00  1.00  0.00  0.00  0.00  0.62  0.00
  WSL2127                 1.00   0.00  0.00  0.00  1.00  0.00  0.00  0.00  0.00  0.00
  WSL2128                 1.00   0.00  0.00  0.00  1.00  0.00  0.00  0.00  0.85  0.00
  WSL2130                 1.00   0.00  0.00  0.00  0.37  0.63  0.00  0.00  0.01  0.00
  WSL2146                 1.00   0.00  0.00  0.00  1.00  0.00  0.00  0.00  0.75  0.00
  WSL2147                 1.00   0.00  0.00  0.00  1.00  0.00  0.00  0.00  0.01  0.00
  WSL2148                 1.00   0.00  0.00  0.00  0.27  0.73  0.00  0.00  0.46  0.00
  WSL2294                 1.00   0.00  0.00  0.00  1.00  0.00  0.00  0.00  0.00  0.00
  WSL2295                 1.00   0.00  0.00  0.00  1.00  0.00  0.00  0.00  0.00  0.00
  WSL2296                 1.00   0.00  0.00  0.00  0.06  0.94  0.00  0.00  0.65  0.00
[...]
  19                      1.00   1.00  0.00  0.00  0.00  0.00  0.00  0.00  0.00  0.00
  17                      1.00   1.00  0.00  0.00  0.00  0.00  0.00  0.00  0.00  0.00
  4                       1.00   1.00  0.00  0.00  0.00  0.00  0.00  0.00  0.00  0.00
  outletpipe              1.00   0.12  0.00  0.00  0.00  0.88  0.00  0.00  0.00  0.00
  11                      1.00   1.00  0.00  0.00  0.00  0.00  0.00  0.00  0.00  0.00
  20                      1.00   1.00  0.00  0.00  0.00  0.00  0.00  0.00  0.00  0.00
  1                       1.00   1.00  0.00  0.00  0.00  0.00  0.00  0.00  0.00  0.00
  28                      1.00   1.00  0.00  0.00  0.00  0.00  0.00  0.00  0.00  0.00
  30                      1.00   1.00  0.00  0.00  0.00  0.00  0.00  0.00  0.00  0.00
  2                       1.00   0.00  0.00  0.00  0.00  1.00  0.00  0.00  0.29  0.00
  
  
  *************************
  Conduit Surcharge Summary
  *************************
  
  ----------------------------------------------------------------------------
                                                           Hours        Hours 
                         --------- Hours Full --------   Above Full   Capacity
  Conduit                Both Ends  Upstream  Dnstream   Normal Flow   Limited
  ----------------------------------------------------------------------------
  WSL49                       0.01      0.01      0.01      1.35         0.01
  WSL50                       0.01      0.01      0.01      0.48         0.01
  WSL51                       0.01      0.01      0.01      1.40         0.01
  WSL53                       0.01      0.01      0.01      1.42         0.01
  WSL54                       0.01      0.01      0.01      0.88         0.01
  WSL78                       0.01      0.01      0.01      0.28         0.01
  WSL81                       0.01      0.01      0.01      0.59         0.01
  WSL122                      0.01      0.01      0.01      0.91         0.01
  WSL145                      0.01      0.01      0.01      0.74         0.01
  WSL146                      0.01      0.01      0.01      0.28         0.01
  WSL148                      0.01      0.01      0.01      0.97         0.01
  WSL149                      0.01      0.01      0.01      1.63         0.01
  WSL1475                     0.01      0.01      0.01      0.63         0.01
  WSL2294                     0.01      0.01      0.01      0.65         0.01
  WSL2295                     0.01      0.01      0.01      1.37         0.01
  WSL2298                     0.01      0.01      0.01      1.51         0.01
  WSL2447                     0.01      0.01      0.01      1.35         0.01
  WSL2448                     0.01      0.01      0.01      0.01         0.01
  WSL2449                     0.01      0.01      0.01      0.01         0.01
  WSL2451                     0.01      0.01      0.01      0.88         0.01
  WSL2480                     0.01      0.01      0.01      0.44         0.01
  WSL348                      2.21      2.21      2.23      0.01         0.01
  WSL175                      2.23      2.23      2.23      2.44         2.22
  XRpipe                      2.23      2.23      3.96      0.01         0.01
  
  
  ***************
  Pumping Summary
  ***************
  
  ---------------------------------------------------------------------------------------------------------
                                                  Min       Avg       Max     Total     Power    % Time Off
                        Percent   Number of      Flow      Flow      Flow    Volume     Usage    Pump Curve
  Pump                 Utilized   Start-Ups       MLD       MLD       MLD  10^6 ltr     Kw-hr    Low   High
  ---------------------------------------------------------------------------------------------------------
  XR-Pump-1               98.82           1      0.00      8.12      8.12     1.337      9.59    0.0    0.0
  XR-Pump-3               91.38           7      0.00      8.12      8.12     1.237      8.30    0.0    0.0
  XR-Pump-2               98.05           1      0.00      8.12      8.12     1.327      9.46    0.0    0.0
  XR-Pump-4               62.08           4      0.00      8.12      8.12     0.840      3.17    0.0    0.0
  CC-Pump-1               22.75           7      0.00     17.28     17.28     0.655      5.25    0.0    0.0
  CC-Pump-2                0.00           0      0.00      0.00      0.00     0.000      0.00    0.0    0.0
  JK-Pump-1               19.63           6      0.00     17.28     17.28     0.565      4.00    0.0    0.0
  JK-Pump-2                0.00           0      0.00      0.00      0.00     0.000      0.00    0.0    0.0
  
  
  ***************************
  Link Pollutant Load Summary
  ***************************
  
  ------------------------------------------------------------------------------------------
                                 COD         NH3-N            TN            TP            SS
  Link                            kg            kg            kg            kg            kg
  ------------------------------------------------------------------------------------------
  WSL49                     1327.622         0.000         0.000         0.000         0.000
  WSL50                      169.265         0.000         0.000         0.000         0.000
  WSL51                      167.846         0.000         0.000         0.000         0.000
  WSL52                      167.767         0.000         0.000         0.000         0.000
  WSL53                      167.172         0.000         0.000         0.000         0.000
  WSL54                      167.303         0.000         0.000         0.000         0.000
  WSL55                      166.216         0.000         0.000         0.000         0.000
  WSL77                      165.981         0.000         0.000         0.000         0.000
  WSL78                      165.423         0.000         0.000         0.000         0.000
  WSL79                      164.527         0.000         0.000         0.000         0.000
  WSL80                      163.129         0.000         0.000         0.000         0.000
  WSL81                      161.483         0.000         0.000         0.000         0.000
  WSL82                      160.644         0.000         0.000         0.000         0.000
  WSL83                      160.444         0.000         0.000         0.000         0.000
  WSL84                       89.834         0.000         0.000         0.000         0.000
  WSL85                        3.271         0.000         0.000         0.000         0.000
  WSL86                        1.039         0.000         0.000         0.000         0.000
  WSL122                     132.450         0.000         0.000         0.000         0.000
  WSL123                     159.361         0.000         0.000         0.000         0.000
  WSL144                     111.931         0.000         0.000         0.000         0.000
  WSL145                     131.404         0.000         0.000         0.000         0.000
  WSL146                     138.135         0.000         0.000         0.000         0.000
  WSL147                     138.465         0.000         0.000         0.000         0.000
  WSL148                     138.365         0.000         0.000         0.000         0.000
  WSL149                     157.503         0.000         0.000         0.000         0.000
  WSL150                     158.959         0.000         0.000         0.000         0.000
  WSL151                     159.136         0.000         0.000         0.000         0.000
  WSL500                      81.118         0.000         0.000         0.000         0.000
  WSL502                      88.280         0.000         0.000         0.000         0.000
  WSL508                      49.000         0.000         0.000         0.000         0.000
  WSL509                      47.028         0.000         0.000         0.000         0.000
  WSL551                      41.666         0.000         0.000         0.000         0.000
  WSL553                      42.731         0.000         0.000         0.000         0.000
  WSL554                      43.956         0.000         0.000         0.000         0.000
  WSL555                      45.510         0.000         0.000         0.000         0.000
  WSL1465                    628.209         0.000         0.000         0.000         0.000
  WSL1472                   1114.721         0.000         0.000         0.000         0.000
  WSL1475                   1345.262         0.000         0.000         0.000         0.000
  WSL1476                    210.163         0.000         0.000         0.000         0.000
  WSL1477                     39.242         0.000         0.000         0.000         0.000
  WSL1490                    613.402         0.000         0.000         0.000         0.000
  WSL1491                    617.438         0.000         0.000         0.000         0.000
  WSL1492                    624.307         0.000         0.000         0.000         0.000
  WSL1506                      1.646         0.000         0.000         0.000         0.000
  WSL1507                      2.135         0.000         0.000         0.000         0.000
  WSL1508                     23.098         0.000         0.000         0.000         0.000
  WSL1512                     23.532         0.000         0.000         0.000         0.000
  WSL1513                     25.172         0.000         0.000         0.000         0.000
  WSL1515                    474.922         0.000         0.000         0.000         0.000
  WSL1516                     39.953         0.000         0.000         0.000         0.000
  WSL1518                     36.539         0.000         0.000         0.000         0.000
  WSL1519                     37.273         0.000         0.000         0.000         0.000
  WSL1521                     38.372         0.000         0.000         0.000         0.000
  WSL1525                     91.274         0.000         0.000         0.000         0.000
  WSL1526                     91.699         0.000         0.000         0.000         0.000
  WSL1529                     95.905         0.000         0.000         0.000         0.000
  WSL1530                     99.272         0.000         0.000         0.000         0.000
  WSL1532                    106.975         0.000         0.000         0.000         0.000
  WSL1543                     36.830         0.000         0.000         0.000         0.000
  WSL1545                    110.625         0.000         0.000         0.000         0.000
  WSL1641                     43.837         0.000         0.000         0.000         0.000
  WSL1642                     39.337         0.000         0.000         0.000         0.000
  WSL1643                     36.633         0.000         0.000         0.000         0.000
  WSL1644                     33.944         0.000         0.000         0.000         0.000
  WSL1646                     29.327         0.000         0.000         0.000         0.000
  WSL1647                     27.231         0.000         0.000         0.000         0.000
  WSL1652                     21.204         0.000         0.000         0.000         0.000
  WSL1764                     97.438         0.000         0.000         0.000         0.000
  WSL1931                     19.235         0.000         0.000         0.000         0.000
  WSL1932                     16.460         0.000         0.000         0.000         0.000
  WSL1934                     13.127         0.000         0.000         0.000         0.000
  WSL1935                     12.425         0.000         0.000         0.000         0.000
  WSL1961                    600.234         0.000         0.000         0.000         0.000
  WSL1964                    609.232         0.000         0.000         0.000         0.000
  WSL2010                    354.313         0.000         0.000         0.000         0.000
  WSL2011                    359.722         0.000         0.000         0.000         0.000
  WSL2012                    365.325         0.000         0.000         0.000         0.000
  WSL2013                    374.089         0.000         0.000         0.000         0.000
  WSL2014                    415.894         0.000         0.000         0.000         0.000
  WSL2015                    417.730         0.000         0.000         0.000         0.000
  WSL2016                    444.008         0.000         0.000         0.000         0.000
  WSL2017                    446.893         0.000         0.000         0.000         0.000
  WSL2018                    466.543         0.000         0.000         0.000         0.000
  WSL2019                    468.914         0.000         0.000         0.000         0.000
  WSL2028                    349.222         0.000         0.000         0.000         0.000
  WSL2029                    452.458         0.000         0.000         0.000         0.000
  WSL2031                     10.276         0.000         0.000         0.000         0.000
  WSL2032                      8.438         0.000         0.000         0.000         0.000
  WSL2034                     50.032         0.000         0.000         0.000         0.000
  WSL2037                     51.329         0.000         0.000         0.000         0.000
  WSL2038                     66.802         0.000         0.000         0.000         0.000
  WSL2039                     73.561         0.000         0.000         0.000         0.000
  WSL2041                     70.215         0.000         0.000         0.000         0.000
  WSL2124                     58.432         0.000         0.000         0.000         0.000
  WSL2126                     59.368         0.000         0.000         0.000         0.000
  WSL2127                     60.875         0.000         0.000         0.000         0.000
  WSL2128                     62.448         0.000         0.000         0.000         0.000
  WSL2130                     76.201         0.000         0.000         0.000         0.000
  WSL2146                     77.647         0.000         0.000         0.000         0.000
  WSL2147                     78.482         0.000         0.000         0.000         0.000
  WSL2148                     79.625         0.000         0.000         0.000         0.000
  WSL2294                    326.294         0.000         0.000         0.000         0.000
  WSL2295                    327.633         0.000         0.000         0.000         0.000
  WSL2296                    337.301         0.000         0.000         0.000         0.000
  WSL2297                    341.343         0.000         0.000         0.000         0.000
  WSL2298                    331.327         0.000         0.000         0.000         0.000
  WSL2301                    342.905         0.000         0.000         0.000         0.000
  WSL2302                    348.341         0.000         0.000         0.000         0.000
  WSL2357                     14.581         0.000         0.000         0.000         0.000
  WSL2358                     16.193         0.000         0.000         0.000         0.000
  WSL2359                     17.185         0.000         0.000         0.000         0.000
  WSL2361                     31.411         0.000         0.000         0.000         0.000
  WSL2362                     32.758         0.000         0.000         0.000         0.000
  WSL2441                    324.864         0.000         0.000         0.000         0.000
  WSL2442                    263.600         0.000         0.000         0.000         0.000
  WSL2443                    262.040         0.000         0.000         0.000         0.000
  WSL2444                    258.820         0.000         0.000         0.000         0.000
  WSL2446                    256.806         0.000         0.000         0.000         0.000
  WSL2447                    253.494         0.000         0.000         0.000         0.000
  WSL2448                    249.927         0.000         0.000         0.000         0.000
  WSL2449                    188.422         0.000         0.000         0.000         0.000
  WSL2450                    185.476         0.000         0.000         0.000         0.000
  WSL2451                    183.519         0.000         0.000         0.000         0.000
  WSL2452                    181.856         0.000         0.000         0.000         0.000
  WSL2454                    177.575         0.000         0.000         0.000         0.000
  WSL2478                    175.909         0.000         0.000         0.000         0.000
  WSL2479                    164.415         0.000         0.000         0.000         0.000
  WSL2480                    161.344         0.000         0.000         0.000         0.000
  WSL2482                    156.896         0.000         0.000         0.000         0.000
  WSL2484                    148.938         0.000         0.000         0.000         0.000
  WSL2493                    266.525         0.000         0.000         0.000         0.000
  WSL2867                    476.521         0.000         0.000         0.000         0.000
  WSL2868                    480.285         0.000         0.000         0.000         0.000
  5                           26.771         0.000         0.000         0.000         0.000
  WSL348                     874.286         0.000         0.000         0.000         0.000
  WSL175                     881.190         0.000         0.000         0.000         0.000
  WSL1467                   1109.517         0.000         0.000         0.000         0.000
  WSL1473                   1118.627         0.000         0.000         0.000         0.000
  XRpipe                     894.105         0.000         0.000         0.000         0.000
  8                            0.000         0.000         0.000         0.000         0.000
  19                           0.000         0.000         0.000         0.000         0.000
  17                           0.000         0.000         0.000         0.000         0.000
  4                            0.000         0.000         0.000         0.000         0.000
  outletpipe                 294.555         0.000         0.000         0.000         0.000
  11                           0.000         0.000         0.000         0.000         0.000
  20                           0.000         0.000         0.000         0.000         0.000
  1                            0.000         0.000         0.000         0.000         0.000
  28                           0.000         0.000         0.000         0.000         0.000
  30                           0.000         0.000         0.000         0.000         0.000
  2                         1362.427         0.000         0.000         0.000         0.000
  XR-Pump-1                  172.073         0.000         0.000         0.000         0.000
  XR-Pump-3                  155.304         0.000         0.000         0.000         0.000
  XR-Pump-2                  170.347         0.000         0.000         0.000         0.000
  XR-Pump-4                   90.515         0.000         0.000         0.000         0.000
  CC-Pump-1                   74.573         0.000         0.000         0.000         0.000
  CC-Pump-2                    0.000         0.000         0.000         0.000         0.000
  JK-Pump-1                   58.793         0.000         0.000         0.000         0.000
  JK-Pump-2                    0.000         0.000         0.000         0.000         0.000
  

  Analysis begun on:  Mon Oct 29 01:02:22 2018
  Analysis ended on:  Mon Oct 29 01:02:25 2018
  Total elapsed time: 00:00:03