
  EPA STORM WATER MANAGEMENT MODEL - VERSION 5.1 (Build 5.2.0.dev1)
  --------------------------------------------------------------

  
  *********************************************************
  NOTE: The summary statistics displayed in this report are
  based on results found at every computational time step,  
  not just on results from each reporting time step.
  *********************************************************
  
  ****************
  Analysis Options
  ****************
  Flow Units ............... MLD
  Process Models:
    Rainfall/Runoff ........ YES
    RDII ................... NO
    Snowmelt ............... NO
    Groundwater ............ NO
    Flow Routing ........... YES
    Ponding Allowed ........ NO
    Water Quality .......... YES
  Infiltration Method ...... GREEN_AMPT
  Flow Routing Method ...... DYNWAVE
  Starting Date ............ 08/28/2015 08:00:00
  Ending Date .............. 08/28/2015 12:00:00
  Antecedent Dry Days ...... 4.0
  Report Time Step ......... 00:01:00
  Wet Time Step ............ 00:01:00
  Dry Time Step ............ 00:01:00
  Routing Time Step ........ 5.00 sec
  Variable Time Step ....... YES
  Maximum Trials ........... 8
  Number of Threads ........ 1
  Head Tolerance ........... 0.001500 m
  
  
  **************************        Volume         Depth
  Runoff Quantity Continuity     hectare-m            mm
  **************************     ---------       -------
  Total Precipitation ......         2.662         8.052
  Evaporation Loss .........         0.000         0.000
  Infiltration Loss ........         1.532         4.633
  Surface Runoff ...........         0.506         1.531
  Final Storage ............         0.625         1.892
  Continuity Error (%) .....        -0.038
  
  
  **************************           COD         NH3-N            TN            TP            SS
  Runoff Quality Continuity             kg            kg            kg            kg            kg
  **************************    ----------    ----------    ----------    ----------    ----------
  Initial Buildup ..........     15404.640         0.000         0.000         0.000         0.000
  Surface Buildup ..........       140.584         0.000         0.000         0.000         0.000
  Wet Deposition ...........         0.000         0.000         0.000         0.000         0.000
  Sweeping Removal .........         0.000         0.000         0.000         0.000         0.000
  Infiltration Loss ........        72.521         0.000         0.000         0.000         0.000
  BMP Removal ..............         0.000         0.000         0.000         0.000         0.000
  Surface Runoff ...........       354.958         0.000         0.000         0.000         0.000
  Remaining Buildup ........     15117.387         0.000         0.000         0.000         0.000
  Continuity Error (%) .....         0.002         0.000         0.000         0.000         0.000
  
  
  **************************        Volume        Volume
  Flow Routing Continuity        hectare-m      10^6 ltr
  **************************     ---------     ---------
  Dry Weather Inflow .......         0.000         0.000
  Wet Weather Inflow .......         0.505         5.047
  Groundwater Inflow .......         0.000         0.000
  RDII Inflow ..............         0.000         0.000
  External Inflow ..........         0.621         6.206
  External Outflow .........         1.037        10.374
  Flooding Loss ............         0.000         0.000
  Evaporation Loss .........         0.000         0.000
  Exfiltration Loss ........         0.000         0.000
  Initial Stored Volume ....         0.000         0.000
  Final Stored Volume ......         0.088         0.881
  Continuity Error (%) .....        -0.015
  
  
  **************************           COD         NH3-N            TN            TP            SS
  Quality Routing Continuity            kg            kg            kg            kg            kg
  **************************    ----------    ----------    ----------    ----------    ----------
  Dry Weather Inflow .......         0.000         0.000         0.000         0.000         0.000
  Wet Weather Inflow .......       354.259         0.000         0.000         0.000         0.000
  Groundwater Inflow .......         0.000         0.000         0.000         0.000         0.000
  RDII Inflow ..............         0.000         0.000         0.000         0.000         0.000
  External Inflow ..........      1036.445         0.000         0.000         0.000         0.000
  External Outflow .........      1302.399         0.000         0.000         0.000         0.000
  Flooding Loss ............         0.000         0.000         0.000         0.000         0.000
  Exfiltration Loss ........         0.000         0.000         0.000         0.000         0.000
  Mass Reacted .............         0.000         0.000         0.000         0.000         0.000
  Initial Stored Mass ......         0.000         0.000         0.000         0.000         0.000
  Final Stored Mass ........        88.165         0.000         0.000         0.000         0.000
  Continuity Error (%) .....         0.010         0.000         0.000         0.000         0.000
  
  
  *************************
  Highest Continuity Errors
  *************************
  Node WS02003123 (1.92%)
  Node WS02003099 (1.26%)
  Node WS02003094 (1.04%)
  
  
  ***************************
  Time-Step Critical Elements
  ***************************
  Link outletpipe (78.12%)
  Link WSL2448 (18.92%)
  
  
  ********************************
  Highest Flow Instability Indexes
  ********************************
  Link WSL1477 (46)
  Link WSL1516 (42)
  Link WSL84 (10)
  Link WSL1515 (8)
  Link WSL1475 (6)
  
  
  *************************
  Routing Time Step Summary
  *************************
  Minimum Time Step           :     0.50 sec
  Average Time Step           :     1.13 sec
  Maximum Time Step           :     5.00 sec
  Percent in Steady State     :     0.00
  Average Iterations per Step :     2.15
  Percent Not Converging      :     1.89
  
  
  ***************************
  Subcatchment Runoff Summary
  ***************************
  
  --------------------------------------------------------------------------------------------------------
                            Total      Total      Total      Total      Total       Total     Peak  Runoff
                           Precip      Runon       Evap      Infil     Runoff      Runoff   Runoff   Coeff
  Subcatchment                 mm         mm         mm         mm         mm    10^6 ltr      MLD
  --------------------------------------------------------------------------------------------------------
  1                          8.05       5.77       0.00       6.58       4.47        0.05     0.85   0.324
  2                          8.05       0.00       0.00       5.54       2.02        0.07     1.29   0.251
  3                          8.05       0.00       0.00       5.55       1.96        0.10     1.86   0.243
  4                          8.05       0.00       0.00       5.54       2.06        0.05     1.05   0.255
  5                          8.05       5.06       0.00       6.53       4.06        0.07     1.14   0.309
  6                          8.05       0.00       0.00       5.55       1.96        0.10     1.81   0.244
  7                          8.05       0.00       0.00       3.46       1.69        2.70    40.46   0.210
  8                          8.05       0.00       0.00       5.54       1.99        0.08     1.58   0.247
  9                          8.05       1.95       0.00       5.97       2.62        0.10     1.76   0.262
  10                         8.05       3.29       0.00       6.16       3.24        0.06     1.00   0.286
  11                         8.05       0.00       0.00       5.53       2.10        0.04     0.81   0.261
  13                         8.05      30.19       0.00       8.26      22.73        0.04     0.60   0.594
  14                         8.05      31.18       0.00       8.75      24.25        0.05     0.78   0.618
  16                         8.05       5.39       0.00       6.24       4.27        0.03     0.39   0.318
  17                         8.05       0.00       0.00       5.54       2.01        0.07     1.39   0.249
  18                         8.05       0.00       0.00       5.55       1.98        0.09     1.61   0.246
  19                         8.05       0.00       0.00       5.54       2.06        0.05     1.01   0.256
  20                         8.05       1.86       0.00       5.95       2.66        0.07     1.34   0.269
  21                         8.05       4.90       0.00       6.47       4.01        0.06     1.00   0.310
  22                         8.05       3.77       0.00       6.33       3.53        0.06     1.08   0.299
  23                         8.05       0.00       0.00       5.50       2.25        0.02     0.32   0.280
  24                         8.05       0.00       0.00       5.53       2.08        0.05     0.89   0.259
  25                         8.05       0.00       0.00       5.52       2.18        0.02     0.49   0.271
  26                         8.05       0.00       0.00       5.53       2.10        0.04     0.82   0.260
  27                         8.05       0.00       0.00       5.53       2.10        0.04     0.80   0.261
  28                         8.05       5.39       0.00       6.57       3.93        0.10     1.66   0.292
  29                         8.05       2.18       0.00       5.96       2.76        0.07     1.15   0.269
  30                         8.05       7.68       0.00       6.91       5.66        0.05     0.84   0.360
  31                         8.05       0.00       0.00       5.54       2.01        0.07     1.35   0.250
  32                         8.05       0.00       0.00       5.55       1.96        0.10     1.86   0.243
  33                         8.05       0.00       0.00       5.51       2.22        0.02     0.39   0.276
  34                         8.05       4.26       0.00       6.42       3.66        0.08     1.29   0.297
  35                         8.05       0.00       0.00       5.54       2.04        0.06     1.18   0.253
  36                         8.05       3.73       0.00       6.34       3.07        0.18     3.04   0.261
  37                         8.05       0.00       0.00       5.55       1.98        0.09     1.67   0.246
  38                         8.05       0.00       0.00       5.54       2.04        0.06     1.14   0.254
  39                         8.05       0.00       0.00       5.54       2.02        0.07     1.31   0.251
  40                         8.05       1.04       0.00       5.79       2.32        0.09     1.66   0.255
  41                         8.05       0.00       0.00       5.53       2.10        0.04     0.80   0.261
  42                         8.05       0.00       0.00       5.53       2.08        0.05     0.92   0.258
  43                         8.05       0.00       0.00       5.47       2.36        0.01     0.17   0.293
  44                         8.05      51.15       0.00      10.29      37.83        0.14     2.28   0.639
  45                         8.05       0.00       0.00       5.51       2.19        0.02     0.45   0.272
  46                         8.05       3.03       0.00       6.18       3.16        0.07     1.18   0.285
  47                         8.05       0.00       0.00       5.52       2.18        0.02     0.48   0.271
  48                         8.05       1.53       0.00       5.87       2.68        0.04     0.79   0.280
  49                         8.05       0.00       0.00       5.53       2.09        0.04     0.87   0.259
  50                         8.05       2.53       0.00       6.08       3.03        0.05     0.96   0.286
  51                         8.05       2.09       0.00       5.99       2.81        0.06     1.09   0.277
  52                         8.05       0.00       0.00       5.53       2.09        0.04     0.87   0.259
  53                         8.05       1.05       0.00       5.77       2.48        0.04     0.82   0.273
  54                         8.05       0.00       0.00       5.51       2.23        0.02     0.37   0.276
  55                         8.05       2.25       0.00       5.99       3.15        0.03     0.48   0.305
  56                         8.05       3.35       0.00       6.23       3.27        0.07     1.20   0.287
  57                         8.05       0.00       0.00       5.55       1.96        0.10     1.82   0.244
  58                         8.05       0.00       0.00       5.51       2.19        0.02     0.45   0.272
  59                         8.05       0.00       0.00       5.51       2.22        0.02     0.38   0.276
  60                         8.05       5.01       0.00       6.45       4.69        0.02     0.41   0.359
  61                         8.05       0.00       0.00       5.56       1.74        0.31     5.35   0.216
  62                         8.05       0.00       0.00       5.56       1.73        0.33     5.59   0.215
  63                         8.05       0.00       0.00       5.51       2.20        0.02     0.43   0.274
  64                         8.05       0.00       0.00       5.52       2.17        0.03     0.52   0.270
  65                         8.05       0.00       0.00       5.53       2.12        0.04     0.72   0.263
  
  
  ****************************
  Subcatchment Washoff Summary
  ****************************
  
  ------------------------------------------------------------------------------------------
                                 COD         NH3-N            TN            TP            SS
  Subcatchment                    kg            kg            kg            kg            kg
  ------------------------------------------------------------------------------------------
  1                            2.995         0.000         0.000         0.000         0.000
  2                            0.000         0.000         0.000         0.000         0.000
  3                            0.000         0.000         0.000         0.000         0.000
  4                            3.898         0.000         0.000         0.000         0.000
  5                           10.241         0.000         0.000         0.000         0.000
  6                            6.553         0.000         0.000         0.000         0.000
  7                          150.241         0.000         0.000         0.000         0.000
  8                            5.772         0.000         0.000         0.000         0.000
  9                            9.853         0.000         0.000         0.000         0.000
  10                           8.518         0.000         0.000         0.000         0.000
  11                           3.031         0.000         0.000         0.000         0.000
  13                          16.806         0.000         0.000         0.000         0.000
  14                          14.569         0.000         0.000         0.000         0.000
  16                           8.587         0.000         0.000         0.000         0.000
  17                           5.114         0.000         0.000         0.000         0.000
  18                           5.885         0.000         0.000         0.000         0.000
  19                           3.736         0.000         0.000         0.000         0.000
  20                           7.548         0.000         0.000         0.000         0.000
  21                           9.610         0.000         0.000         0.000         0.000
  22                           8.390         0.000         0.000         0.000         0.000
  23                           1.240         0.000         0.000         0.000         0.000
  24                           3.303         0.000         0.000         0.000         0.000
  25                           1.887         0.000         0.000         0.000         0.000
  26                           3.057         0.000         0.000         0.000         0.000
  27                           2.992         0.000         0.000         0.000         0.000
  28                          17.380         0.000         0.000         0.000         0.000
  29                           8.340         0.000         0.000         0.000         0.000
  30                          10.109         0.000         0.000         0.000         0.000
  31                           4.974         0.000         0.000         0.000         0.000
  32                           6.750         0.000         0.000         0.000         0.000
  33                           1.495         0.000         0.000         0.000         0.000
  34                          10.445         0.000         0.000         0.000         0.000
  35                           4.352         0.000         0.000         0.000         0.000
  36                          23.007         0.000         0.000         0.000         0.000
  37                           6.065         0.000         0.000         0.000         0.000
  38                           4.231         0.000         0.000         0.000         0.000
  39                           4.808         0.000         0.000         0.000         0.000
  40                           7.869         0.000         0.000         0.000         0.000
  41                           2.979         0.000         0.000         0.000         0.000
  42                           3.419         0.000         0.000         0.000         0.000
  43                           0.701         0.000         0.000         0.000         0.000
  44                          33.417         0.000         0.000         0.000         0.000
  45                           1.729         0.000         0.000         0.000         0.000
  46                           8.503         0.000         0.000         0.000         0.000
  47                           1.844         0.000         0.000         0.000         0.000
  48                           4.291         0.000         0.000         0.000         0.000
  49                           3.252         0.000         0.000         0.000         0.000
  50                           6.166         0.000         0.000         0.000         0.000
  51                           6.439         0.000         0.000         0.000         0.000
  52                           3.252         0.000         0.000         0.000         0.000
  53                           4.050         0.000         0.000         0.000         0.000
  54                           1.436         0.000         0.000         0.000         0.000
  55                           3.093         0.000         0.000         0.000         0.000
  56                           9.290         0.000         0.000         0.000         0.000
  57                           6.619         0.000         0.000         0.000         0.000
  58                           1.744         0.000         0.000         0.000         0.000
  59                           1.451         0.000         0.000         0.000         0.000
  60                           4.083         0.000         0.000         0.000         0.000
  61                          18.338         0.000         0.000         0.000         0.000
  62                          19.101         0.000         0.000         0.000         0.000
  63                           1.642         0.000         0.000         0.000         0.000
  64                           1.972         0.000         0.000         0.000         0.000
  65                           2.700         0.000         0.000         0.000         0.000
  ------------------------------------------------------------------------------------------
  System                     555.162         0.000         0.000         0.000         0.000
  
  
  ******************
  Node Depth Summary
  ******************
  
  ---------------------------------------------------------------------------------
                                 Average  Maximum  Maximum  Time of Max    Reported
                                   Depth    Depth      HGL   Occurrence   Max Depth
  Node                 Type       Meters   Meters   Meters  days hr:min      Meters
  ---------------------------------------------------------------------------------
  WS01000070           JUNCTION     0.00     0.00     0.00     0  00:00        0.00
  WS01000323           JUNCTION     0.00     0.00     0.00     0  00:00        0.00
  WS01000533           JUNCTION     0.00     0.00     6.86     0  00:00        0.00
  WS01005172           JUNCTION     0.00     0.00     0.00     0  00:00        0.00
  WS01005181           JUNCTION     0.00     0.00     0.00     0  00:00        0.00
  WS01009841           JUNCTION     0.00     0.00     0.00     0  00:00        0.00
  WS02000078           JUNCTION     0.00     0.00     0.00     0  00:00        0.00
  WS02000112           JUNCTION     0.00     0.00     0.00     0  00:00        0.00
  WS02000136           JUNCTION     0.00     0.00     0.00     0  00:00        0.00
  WS02001211           JUNCTION     0.43     0.45     5.29     0  02:54        0.45
  WS02001212           JUNCTION     0.36     0.40     5.20     0  02:53        0.39
  WS02001213           JUNCTION     0.46     0.50     5.20     0  02:53        0.50
  WS02003059           JUNCTION     0.42     0.49     5.14     0  02:52        0.49
  WS02003060           JUNCTION     0.48     0.58     5.13     0  02:51        0.58
  WS02003066           JUNCTION     0.18     0.27     5.57     0  02:45        0.26
  WS02003067           JUNCTION     0.30     0.44     5.76     0  02:45        0.41
  WS02003071           JUNCTION     0.55     0.70     5.10     0  02:50        0.69
  WS02003072           JUNCTION     0.47     0.63     5.00     0  02:49        0.63
  WS02003073           JUNCTION     0.57     0.79     5.03     0  02:49        0.71
  WS02003076           JUNCTION     0.52     0.71     4.94     0  02:49        0.65
  WS02003077           JUNCTION     0.12     0.15     5.16     0  02:44        0.15
  WS02003078           JUNCTION     0.04     0.05     6.95     0  02:32        0.05
  WS02003079           JUNCTION     0.10     0.14     7.05     0  02:32        0.14
  WS02003080           JUNCTION     0.21     0.26     5.29     0  02:44        0.26
  WS02003081           JUNCTION     0.27     0.33     5.37     0  02:44        0.33
  WS02003082           JUNCTION     0.26     0.33     5.41     0  02:43        0.33
  WS02003083           JUNCTION     0.29     0.37     5.46     0  02:43        0.37
  WS02003084           JUNCTION     0.30     0.38     5.48     0  02:43        0.38
  WS02003085           JUNCTION     0.23     0.31     5.48     0  02:43        0.31
  WS02003086           JUNCTION     0.25     0.33     5.53     0  02:42        0.33
  WS02003087           JUNCTION     0.27     0.35     5.57     0  02:42        0.35
  WS02003088           JUNCTION     0.23     0.31     5.60     0  02:41        0.31
  WS02003089           JUNCTION     0.17     0.23     5.69     0  02:41        0.23
  WS02003090           JUNCTION     0.21     0.28     5.75     0  02:40        0.28
  WS02003091           JUNCTION     0.13     0.17     5.97     0  02:40        0.17
  WS02003092           JUNCTION     0.01     0.01     7.65     0  01:24        0.01
  WS02003093           JUNCTION     0.02     0.02     7.36     0  01:58        0.02
  WS02003094           JUNCTION     0.10     0.13     7.35     0  02:27        0.13
  WS02003098           JUNCTION     0.06     0.08     7.25     0  02:28        0.08
  WS02003099           JUNCTION     0.12     0.16     7.20     0  02:30        0.16
  WS02003102           JUNCTION     0.10     0.14     7.17     0  02:29        0.14
  WS02003103           JUNCTION     0.12     0.17     7.14     0  02:30        0.17
  WS02003104           JUNCTION     0.12     0.16     7.12     0  02:31        0.16
  WS02003106           JUNCTION     0.12     0.16     7.09     0  02:31        0.16
  WS02003110           JUNCTION     0.12     0.16     7.41     0  02:30        0.16
  WS02003111           JUNCTION     0.11     0.15     7.24     0  02:30        0.15
  WS02003115           JUNCTION     0.14     0.19     7.09     0  02:30        0.19
  WS02003116           JUNCTION     0.17     0.23     6.94     0  02:30        0.23
  WS02003118           JUNCTION     0.15     0.20     6.82     0  02:31        0.20
  WS02003122           JUNCTION     0.22     0.31     6.68     0  02:35        0.31
  WS02003123           JUNCTION     0.15     0.24     6.68     0  02:35        0.24
  WS02003126           JUNCTION     0.08     0.16     6.68     0  02:35        0.16
  WS02003187           JUNCTION     0.24     0.33     6.66     0  02:36        0.33
  WS02003188           JUNCTION     0.30     0.39     6.65     0  02:36        0.39
  WS02003190           JUNCTION     0.29     0.38     6.63     0  02:36        0.38
  WS02003193           JUNCTION     0.28     0.37     6.61     0  02:36        0.37
  WS02003195           JUNCTION     0.27     0.36     6.58     0  02:37        0.36
  WS02003196           JUNCTION     0.29     0.37     6.55     0  02:36        0.37
  WS02003198           JUNCTION     0.28     0.35     6.52     0  02:36        0.35
  WS02003200           JUNCTION     0.19     0.25     6.41     0  02:39        0.24
  WS02003201           JUNCTION     0.18     0.24     6.38     0  02:40        0.24
  WS02003202           JUNCTION     0.19     0.26     6.32     0  02:39        0.26
  WS02003203           JUNCTION     0.12     0.17     6.17     0  02:40        0.16
  WS02003215           JUNCTION     0.13     0.18     7.04     0  02:30        0.18
  WS02004050           JUNCTION     0.35     0.42     4.64     0  02:52        0.41
  WS02004053           JUNCTION     0.00     0.00     0.00     0  00:00        0.00
  WS02004136           JUNCTION     0.18     0.18     6.91     0  01:44        0.18
  WS02004139           JUNCTION     0.36     0.37     5.33     0  02:56        0.37
  WS02004401           JUNCTION     0.31     0.46     6.46     0  02:41        0.45
  WS02004402           JUNCTION     0.32     0.46     6.42     0  02:41        0.45
  WS02004403           JUNCTION     0.30     0.45     6.38     0  02:41        0.44
  WS02004404           JUNCTION     0.39     0.53     6.38     0  02:42        0.53
  WS02004405           JUNCTION     0.39     0.53     6.37     0  02:42        0.53
  WS02004406           JUNCTION     0.37     0.51     6.34     0  02:42        0.50
  WS02004407           JUNCTION     0.35     0.48     6.28     0  02:43        0.48
  WS02004409           JUNCTION     0.34     0.46     6.23     0  02:43        0.46
  WS02004410           JUNCTION     0.33     0.44     6.16     0  02:43        0.44
  WS02004411           JUNCTION     0.30     0.41     6.09     0  02:44        0.41
  WS02004412           JUNCTION     0.26     0.35     5.99     0  02:44        0.35
  WS02004413           JUNCTION     0.26     0.37     5.84     0  02:44        0.37
  WS02004997           JUNCTION     5.17     6.34     7.95     0  03:00        6.28
  WS02005122           JUNCTION     0.06     0.09     9.61     0  02:24        0.09
  WS02005123           JUNCTION     0.05     0.08     9.54     0  02:24        0.08
  WS02005124           JUNCTION     0.05     0.07     9.34     0  02:25        0.07
  WS02005126           JUNCTION     0.09     0.12     9.22     0  02:25        0.12
  WS02005127           JUNCTION     0.08     0.11     9.14     0  02:26        0.11
  WS02005129           JUNCTION     0.08     0.12     9.05     0  02:25        0.12
  WS02005131           JUNCTION     0.09     0.13     8.89     0  02:26        0.13
  WS02005132           JUNCTION     0.12     0.17     8.81     0  02:26        0.17
  WS02005133           JUNCTION     0.12     0.16     8.77     0  02:27        0.16
  WS02005135           JUNCTION     0.10     0.15     8.71     0  02:26        0.15
  WS02005137           JUNCTION     0.13     0.19     8.61     0  02:27        0.19
  WS02005138           JUNCTION     0.14     0.19     8.54     0  02:28        0.19
  WS02005140           JUNCTION     0.11     0.15     8.47     0  02:28        0.15
  WS02005142           JUNCTION     0.14     0.19     8.35     0  02:28        0.19
  WS02005144           JUNCTION     0.13     0.18     8.23     0  02:28        0.18
  WS02005145           JUNCTION     0.17     0.22     8.12     0  02:29        0.22
  WS02005147           JUNCTION     0.13     0.18     8.05     0  02:29        0.18
  WS02005152           JUNCTION     0.14     0.19     7.91     0  02:29        0.19
  WS02005154           JUNCTION     0.11     0.14     7.78     0  02:29        0.14
  WS02005155           JUNCTION     0.15     0.20     7.51     0  02:30        0.20
  WS02005162           JUNCTION     0.12     0.15     8.15     0  02:36        0.15
  WS02005163           JUNCTION     0.12     0.15     8.19     0  02:27        0.15
  WS02005164           JUNCTION     0.12     0.15     8.23     0  02:27        0.15
  WS02005165           JUNCTION     0.09     0.11     8.29     0  02:27        0.11
  WS02005166           JUNCTION     0.09     0.11     8.38     0  02:26        0.11
  WS02005167           JUNCTION     0.11     0.14     8.44     0  02:26        0.14
  WS02005170           JUNCTION     0.08     0.10     8.50     0  02:26        0.10
  WS02005171           JUNCTION     0.08     0.11     8.58     0  02:25        0.11
  WS02005175           JUNCTION     0.08     0.10     8.67     0  02:25        0.10
  WS02005176           JUNCTION     0.08     0.09     8.71     0  02:27        0.09
  WS02005180           JUNCTION     0.09     0.11     8.76     0  02:26        0.11
  WS02005181           JUNCTION     0.07     0.09     8.79     0  02:25        0.09
  WS02005183           JUNCTION     0.05     0.06     8.92     0  02:24        0.06
  WS02005184           JUNCTION     0.06     0.08     8.99     0  02:23        0.08
  WS02005185           JUNCTION     0.04     0.06     9.08     0  02:23        0.06
  WS02005186           JUNCTION     0.04     0.06     9.17     0  02:22        0.06
  WS02005188           JUNCTION     0.13     0.20     8.14     0  02:35        0.20
  WS02005191           JUNCTION     0.16     0.24     8.14     0  02:18        0.24
  WS02005192           JUNCTION     0.18     0.26     8.13     0  02:19        0.26
  WS02005193           JUNCTION     0.17     0.30     8.12     0  02:33        0.29
  WS02005196           JUNCTION     0.18     0.27     8.12     0  02:39        0.27
  WS02006109           JUNCTION     0.36     0.56     7.18     0  02:38        0.56
  WS02006110           JUNCTION     0.34     0.51     7.11     0  02:39        0.50
  WS02006111           JUNCTION     0.17     0.28     6.86     0  02:39        0.28
  WS02006112           JUNCTION     0.33     0.50     6.62     0  02:40        0.49
  WS02006113           JUNCTION     0.29     0.44     7.03     0  02:40        0.42
  WS02006115           JUNCTION     0.29     0.44     6.54     0  02:40        0.43
  WS02006116           JUNCTION     0.32     0.47     6.51     0  02:40        0.47
  WS02006183           JUNCTION     0.00     0.00     0.00     0  00:00        0.00
  WS02006228           JUNCTION     0.36     0.57     7.22     0  02:38        0.56
  WS02006229           JUNCTION     0.33     0.55     7.24     0  02:38        0.52
  WS02006230           JUNCTION     0.31     0.56     7.31     0  02:38        0.55
  WS02006231           JUNCTION     0.24     0.46     7.36     0  02:37        0.46
  WS02006232           JUNCTION     0.23     0.43     7.46     0  02:37        0.41
  WS02006234           JUNCTION     0.23     0.43     7.59     0  02:37        0.42
  WS02006235           JUNCTION     0.28     0.49     7.66     0  02:37        0.49
  WS02006238           JUNCTION     0.28     0.50     7.68     0  02:37        0.50
  WS02006239           JUNCTION     0.29     0.50     7.71     0  02:37        0.49
  WS02006242           JUNCTION     0.28     0.48     7.78     0  02:38        0.48
  WS02006240           JUNCTION     0.24     0.44     7.73     0  02:38        0.44
  WS02006243           JUNCTION     0.20     0.39     7.81     0  02:39        0.39
  WS02006245           JUNCTION     0.21     0.38     7.87     0  02:40        0.38
  WS02006247           JUNCTION     0.23     0.41     7.92     0  02:40        0.41
  WS02006248           JUNCTION     0.19     0.36     7.95     0  02:40        0.36
  WS02006249           JUNCTION     0.22     0.40     8.00     0  02:40        0.40
  WS02006251           JUNCTION     0.21     0.40     8.07     0  02:37        0.39
  WS02006253           JUNCTION     0.15     0.31     8.11     0  02:37        0.31
  WS02618401           JUNCTION     0.00     0.00     0.00     0  00:00        0.00
  WS8802               JUNCTION     0.00     0.00     4.38     0  00:00        0.00
  WSA1649              JUNCTION     0.00     0.00     0.00     0  00:00        0.00
  WSF200               JUNCTION     0.17     0.24     5.34     0  02:46        0.23
  XR-Inflow            JUNCTION     5.01     6.22     8.03     0  03:00        6.14
  WS02004114           JUNCTION     5.14     6.28     7.88     0  03:00        6.25
  outfall-24           OUTFALL      0.07     0.10     5.60     0  03:00        0.10
  outfall-2            OUTFALL      0.00     0.00     7.00     0  00:00        0.00
  outfall-5            OUTFALL      0.00     0.00     7.67     0  00:00        0.00
  outfall-8            OUTFALL      0.00     0.00     8.00     0  00:00        0.00
  outfall-14           OUTFALL      0.00     0.00     7.66     0  00:00        0.00
  outfall-16           OUTFALL      0.00     0.00     8.39     0  00:00        0.00
  outfall-17           OUTFALL      0.00     0.00     8.15     0  00:00        0.00
  outfall-27           OUTFALL      0.00     0.00     7.90     0  00:00        0.00
  outfall-28           OUTFALL      0.00     0.00     7.30     0  00:00        0.00
  67                   OUTFALL      0.00     0.00    10.20     0  00:00        0.00
  12                   OUTFALL      0.34     0.41     0.41     0  02:53        0.41
  XR-storage           STORAGE      6.23     7.33     7.83     0  03:00        7.33
  CC-storage           STORAGE      1.92     3.02     6.20     0  02:11        3.02
  JK-storage           STORAGE      1.90     3.02     6.02     0  02:08        2.99
  
  
  *******************
  Node Inflow Summary
  *******************
  
  -------------------------------------------------------------------------------------------------
                                  Maximum  Maximum                  Lateral       Total        Flow
                                  Lateral    Total  Time of Max      Inflow      Inflow     Balance
                                   Inflow   Inflow   Occurrence      Volume      Volume       Error
  Node                 Type           MLD      MLD  days hr:min    10^6 ltr    10^6 ltr     Percent
  -------------------------------------------------------------------------------------------------
  WS01000070           JUNCTION      0.00     0.00     0  00:00           0           0       0.000 ltr
  WS01000323           JUNCTION      0.00     0.00     0  00:00           0           0       0.000 ltr
  WS01000533           JUNCTION      0.00     0.00     0  00:00           0           0       0.000 ltr
  WS01005172           JUNCTION      0.00     0.00     0  00:00           0           0       0.000 ltr
  WS01005181           JUNCTION      0.00     0.00     0  00:00           0           0       0.000 ltr
  WS01009841           JUNCTION      0.00     0.00     0  00:00           0           0       0.000 ltr
  WS02000078           JUNCTION      0.00     0.00     0  00:00           0           0       0.000 ltr
  WS02000112           JUNCTION      0.00     0.00     0  00:00           0           0       0.000 ltr
  WS02000136           JUNCTION      0.00     0.00     0  00:00           0           0       0.000 ltr
  WS02001211           JUNCTION      0.25    34.54     0  01:59      0.0407        4.79       0.526
  WS02001212           JUNCTION      0.21    34.73     0  02:00      0.0346         4.8       0.291
  WS02001213           JUNCTION      0.30    34.81     0  02:55      0.0489        4.83       0.391
  WS02003059           JUNCTION      0.23    35.66     0  02:54      0.0378        4.85       0.454
  WS02003060           JUNCTION      0.16    79.89     0  02:46      0.0252        7.69       0.384
  WS02003066           JUNCTION      0.08    52.14     0  02:45      0.0122        2.81       0.070
  WS02003067           JUNCTION      0.26    43.75     0  02:45      0.0395        2.81       0.170
  WS02003071           JUNCTION      0.35    76.33     0  02:45      0.0538        7.71       0.411
  WS02003072           JUNCTION      0.24    81.03     0  02:51      0.0382        7.72       0.252
  WS02003073           JUNCTION      0.07   100.26     0  02:52     0.00978        8.84       0.239
  WS02003076           JUNCTION      0.72   111.74     0  02:47        0.12        8.94       0.178
  WS02003077           JUNCTION      0.04    16.14     0  02:44      0.0059        1.14       0.151
  WS02003078           JUNCTION      0.03     4.18     0  02:32     0.00419       0.237      -0.051
  WS02003079           JUNCTION      0.04     3.62     0  02:31     0.00561       0.234       0.280
  WS02003080           JUNCTION      0.08    12.63     0  02:44      0.0113       0.896       0.355
  WS02003081           JUNCTION      0.03    12.57     0  02:43     0.00406       0.889       0.473
  WS02003082           JUNCTION      0.05    12.58     0  02:43     0.00692       0.889       0.443
  WS02003083           JUNCTION      0.02    12.56     0  02:43      0.0027       0.886       0.457
  WS02003084           JUNCTION      0.06    12.56     0  02:42     0.00885       0.886       0.311
  WS02003085           JUNCTION      0.02    12.55     0  02:42     0.00307       0.879       0.226
  WS02003086           JUNCTION      0.04    12.57     0  02:42     0.00599       0.879       0.336
  WS02003087           JUNCTION      0.06    12.65     0  02:42     0.00824       0.876       0.376
  WS02003088           JUNCTION      0.07    12.78     0  02:41      0.0105        0.87       0.284
  WS02003089           JUNCTION      0.08    13.08     0  02:41      0.0113       0.861       0.183
  WS02003090           JUNCTION      0.04    12.97     0  02:40     0.00647       0.852       0.198
  WS02003091           JUNCTION      0.01    12.82     0  02:40     0.00171       0.846       0.077
  WS02003092           JUNCTION      0.07     0.07     0  01:00     0.00989     0.00989       0.393
  WS02003093           JUNCTION      0.02     0.09     0  01:24     0.00306      0.0129       1.001
  WS02003094           JUNCTION      1.81     1.88     0  02:26       0.108       0.121       1.054
  WS02003098           JUNCTION      0.02     1.90     0  02:27     0.00293       0.123       0.575
  WS02003099           JUNCTION      0.07     1.96     0  02:28      0.0109       0.133       1.274
  WS02003102           JUNCTION      1.61     3.52     0  02:28      0.0884        0.22       0.581
  WS02003103           JUNCTION      0.02     3.53     0  02:29     0.00239       0.221       0.437
  WS02003104           JUNCTION      0.02     3.55     0  02:30     0.00302       0.223       0.365
  WS02003106           JUNCTION      0.05     3.59     0  02:31     0.00727       0.229       0.473
  WS02003110           JUNCTION      0.06     8.78     0  02:30     0.00906       0.566       0.112
  WS02003111           JUNCTION      0.02     8.51     0  02:30      0.0029       0.568       0.103
  WS02003115           JUNCTION      0.38     8.84     0  02:30      0.0267       0.594       0.103
  WS02003116           JUNCTION      0.08     8.96     0  02:30      0.0118       0.615       0.217
  WS02003118           JUNCTION      0.94     9.84     0  02:30      0.0549       0.668       0.261
  WS02003122           JUNCTION      0.07     9.99     0  02:31      0.0101       0.694       0.374
  WS02003123           JUNCTION      0.06     0.37     0  01:25      0.0093      0.0185       1.956
  WS02003126           JUNCTION      0.03     0.08     0  02:19     0.00529     0.00555       0.627
  WS02003187           JUNCTION      0.06     9.95     0  02:33     0.00906       0.697       0.336
  WS02003188           JUNCTION      0.41    10.31     0  02:33      0.0328       0.728       0.560
  WS02003190           JUNCTION      0.06    10.33     0  02:35     0.00956       0.733       0.523
  WS02003193           JUNCTION      0.83    11.05     0  02:35      0.0444       0.774       0.514
  WS02003195           JUNCTION      0.03    11.05     0  02:35      0.0053       0.775       0.524
  WS02003196           JUNCTION      0.02    11.07     0  02:37     0.00301       0.774       0.564
  WS02003198           JUNCTION      1.02    12.04     0  02:37      0.0633       0.833       0.660
  WS02003200           JUNCTION      0.07    12.10     0  02:37      0.0107       0.838       0.283
  WS02003201           JUNCTION      0.01    12.18     0  02:39     0.00183       0.838       0.107
  WS02003202           JUNCTION      0.02    12.21     0  02:39      0.0031        0.84       0.217
  WS02003203           JUNCTION      0.05    13.33     0  02:40     0.00692       0.845       0.081
  WS02003215           JUNCTION      0.06     8.89     0  02:30     0.00945       0.603       0.089
  WS02004050           JUNCTION      0.72   124.82     0  02:47       0.119        9.05       0.485
  WS02004053           JUNCTION      0.00     0.00     0  00:00           0           0       0.000 ltr
  WS02004136           JUNCTION      0.44    32.92     0  01:43      0.0703        4.71       0.063
  WS02004139           JUNCTION      0.38    33.44     0  01:44      0.0619        4.77       0.367
  WS02004401           JUNCTION      0.05    38.83     0  02:41     0.00897        2.22       0.179
  WS02004402           JUNCTION      0.22    38.52     0  02:41      0.0335        2.25       0.157
  WS02004403           JUNCTION      0.23    38.31     0  02:41      0.0349        2.28       0.118
  WS02004404           JUNCTION      0.24    38.38     0  02:41      0.0365        2.31       0.138
  WS02004405           JUNCTION      1.12    38.89     0  02:42      0.0661        2.37       0.200
  WS02004406           JUNCTION      1.78    40.27     0  02:42       0.125        2.49       0.284
  WS02004407           JUNCTION      0.11    40.01     0  02:42      0.0171         2.5       0.253
  WS02004409           JUNCTION      1.34    40.90     0  02:43       0.103         2.6       0.214
  WS02004410           JUNCTION      0.15    40.97     0  02:43      0.0226        2.62       0.222
  WS02004411           JUNCTION      0.25    41.15     0  02:43      0.0379        2.65       0.194
  WS02004412           JUNCTION      1.89    42.88     0  02:44       0.112        2.76       0.147
  WS02004413           JUNCTION      0.11    43.24     0  02:44      0.0172        2.77       0.126
  WS02004997           JUNCTION      0.42    59.81     0  03:00      0.0693        6.09       0.707
  WS02005122           JUNCTION      1.14     1.14     0  02:24      0.0695      0.0695       0.143
  WS02005123           JUNCTION      0.06     1.20     0  02:24     0.00977      0.0791       0.194
  WS02005124           JUNCTION      0.04     1.23     0  02:24     0.00611      0.0851       0.289
  WS02005126           JUNCTION      1.01     2.25     0  02:25      0.0634       0.148       0.362
  WS02005127           JUNCTION      0.05     2.30     0  02:25     0.00848       0.156       0.318
  WS02005129           JUNCTION      1.18     3.47     0  02:25      0.0657       0.221       0.231
  WS02005131           JUNCTION      0.04     3.51     0  02:25     0.00682       0.228       0.311
  WS02005132           JUNCTION      0.05     3.55     0  02:26     0.00808       0.235       0.441
  WS02005133           JUNCTION      0.06     3.61     0  02:27        0.01       0.244       0.379
  WS02005135           JUNCTION      1.72     5.32     0  02:26       0.099       0.342       0.216
  WS02005137           JUNCTION      0.04     5.36     0  02:27     0.00625       0.348       0.332
  WS02005138           JUNCTION      0.06     5.42     0  02:27      0.0101       0.357       0.412
  WS02005140           JUNCTION      0.06     5.48     0  02:28        0.01       0.365       0.237
  WS02005142           JUNCTION      1.91     7.36     0  02:28       0.108       0.472       0.255
  WS02005144           JUNCTION      0.06     7.42     0  02:28     0.00927        0.48       0.245
  WS02005145           JUNCTION      0.04     7.45     0  02:28     0.00618       0.485       0.353
  WS02005147           JUNCTION      0.05     7.50     0  02:29     0.00749       0.491       0.221
  WS02005152           JUNCTION      0.06     7.56     0  02:29     0.00981         0.5       0.256
  WS02005154           JUNCTION      0.85     8.36     0  02:29      0.0502       0.549       0.140
  WS02005155           JUNCTION      0.06     8.42     0  02:29        0.01       0.558       0.183
  WS02005162           JUNCTION      0.08     3.40     0  02:27      0.0127       0.298       0.457
  WS02005163           JUNCTION      0.13     3.33     0  02:27        0.02       0.287       0.356
  WS02005164           JUNCTION      0.50     3.21     0  02:26      0.0302       0.268       0.354
  WS02005165           JUNCTION      0.11     2.74     0  02:27      0.0168       0.238       0.309
  WS02005166           JUNCTION      0.11     2.64     0  02:26      0.0167       0.222       0.330
  WS02005167           JUNCTION      0.48     2.55     0  02:25      0.0307       0.206       0.478
  WS02005170           JUNCTION      0.09     2.09     0  02:26       0.013       0.176       0.352
  WS02005171           JUNCTION      0.02     2.01     0  02:25     0.00326       0.164       0.374
  WS02005175           JUNCTION      0.73     2.00     0  02:25      0.0394       0.161       0.306
  WS02005176           JUNCTION      0.08     1.28     0  02:26      0.0123       0.122       0.449
  WS02005180           JUNCTION      0.11     1.21     0  02:25      0.0172       0.111       0.621
  WS02005181           JUNCTION      0.13     1.11     0  02:24      0.0203      0.0938       0.467
  WS02005183           JUNCTION      0.03     1.00     0  02:23     0.00433      0.0737       0.270
  WS02005184           JUNCTION      0.09     0.97     0  02:23       0.013      0.0696       0.294
  WS02005185           JUNCTION      0.07     0.90     0  02:23      0.0111      0.0566       0.195
  WS02005186           JUNCTION      0.83     0.83     0  02:23      0.0456      0.0456       0.117
  WS02005188           JUNCTION      0.03     3.46     0  02:22     0.00497       0.304       0.544
  WS02005191           JUNCTION      0.06     4.32     0  02:17     0.00844       0.313       0.776
  WS02005192           JUNCTION      1.92     6.44     0  02:22       0.116       0.429       0.684
  WS02005193           JUNCTION      0.09     7.62     0  02:20      0.0146       0.468       0.830
  WS02005196           JUNCTION      0.12     7.04     0  02:21       0.019       0.449       0.756
  WS02006109           JUNCTION      0.08    40.44     0  02:38      0.0135        1.98       0.271
  WS02006110           JUNCTION      0.08    39.09     0  02:39      0.0132        1.99       0.262
  WS02006111           JUNCTION      0.24    40.91     0  02:39      0.0366        2.14       0.067
  WS02006112           JUNCTION      0.18    41.50     0  02:40      0.0273        2.17       0.197
  WS02006113           JUNCTION      2.01    40.36     0  02:39       0.126        2.11       0.206
  WS02006115           JUNCTION      0.08    40.02     0  02:40      0.0134        2.18       0.196
  WS02006116           JUNCTION      0.24    39.24     0  02:40       0.036        2.21       0.193
  WS02006183           JUNCTION      0.00     0.00     0  00:00           0           0       0.000 ltr
  WS02006228           JUNCTION      2.45    40.95     0  02:38       0.168        1.97       0.208
  WS02006229           JUNCTION      0.13    39.61     0  02:38        0.02        1.81       0.215
  WS02006230           JUNCTION      0.07    40.31     0  02:38      0.0116         1.8       0.370
  WS02006231           JUNCTION      0.13    40.62     0  02:37      0.0205        1.79       0.297
  WS02006232           JUNCTION      1.37    40.34     0  02:37      0.0816        1.78       0.337
  WS02006234           JUNCTION      0.14    38.53     0  02:37      0.0216         1.7       0.471
  WS02006235           JUNCTION      0.14    38.47     0  02:37      0.0223        1.68       0.264
  WS02006238           JUNCTION      0.15    38.72     0  02:36      0.0235        1.68       0.384
  WS02006239           JUNCTION      0.11    26.88     0  02:39      0.0174        1.22       0.756
  WS02006242           JUNCTION      0.08    25.22     0  02:41      0.0129         1.2       0.995
  WS02006240           JUNCTION      0.06    26.00     0  02:40     0.00992        1.21       0.718
  WS02006243           JUNCTION      0.17    24.74     0  02:41      0.0269         1.2       0.601
  WS02006245           JUNCTION      0.07    24.46     0  02:40      0.0113        1.18       0.514
  WS02006247           JUNCTION      1.00    24.41     0  02:38      0.0791        1.17       0.499
  WS02006248           JUNCTION      0.12    23.42     0  02:37      0.0192         1.1       0.421
  WS02006249           JUNCTION      0.19    23.48     0  02:37      0.0286        1.09       0.695
  WS02006251           JUNCTION      0.54    23.60     0  02:37      0.0359        1.06       0.698
  WS02006253           JUNCTION      0.11    22.99     0  02:36      0.0173        1.04       0.334
  WS02618401           JUNCTION      0.00     0.00     0  00:00           0           0       0.000 ltr
  WS8802               JUNCTION      0.00     0.00     0  00:00           0           0       0.000 ltr
  WSA1649              JUNCTION      0.00     0.00     0  00:00           0           0       0.000 ltr
  WSF200               JUNCTION      0.14    48.61     0  02:46      0.0216        2.83       0.031
  XR-Inflow            JUNCTION     59.40    59.40     0  03:00        6.04        6.04       0.380
  WS02004114           JUNCTION      0.57    60.35     0  03:00      0.0916        6.13       0.378
  outfall-24           OUTFALL       0.00    27.86     0  03:00           0        1.37       0.000
  outfall-2            OUTFALL       0.00     0.00     0  00:00           0           0       0.000 ltr
  outfall-5            OUTFALL       0.00     0.00     0  00:00           0           0       0.000 ltr
  outfall-8            OUTFALL       0.00     0.00     0  00:00           0           0       0.000 ltr
  outfall-14           OUTFALL       0.00     0.00     0  00:00           0           0       0.000 ltr
  outfall-16           OUTFALL       0.00     0.00     0  00:00           0           0       0.000 ltr
  outfall-17           OUTFALL       0.00     0.00     0  00:00           0           0       0.000 ltr
  outfall-27           OUTFALL       0.00     0.00     0  00:00           0           0       0.000 ltr
  outfall-28           OUTFALL       0.00     0.00     0  00:00           0           0       0.000 ltr
  67                   OUTFALL       0.00     0.00     0  00:00           0           0       0.000 ltr
  12                   OUTFALL       0.00    97.76     0  02:53           0           9       0.000
  XR-storage           STORAGE       0.00    60.35     0  03:00           0        6.11       0.709
  CC-storage           STORAGE       6.97     6.97     0  02:31         0.6         0.6       0.001
  JK-storage           STORAGE       6.59     6.59     0  02:31       0.505       0.505       0.001
  
  
  **********************
  Node Surcharge Summary
  **********************
  
  Surcharging occurs when water rises above the top of the highest conduit.
  ---------------------------------------------------------------------
                                               Max. Height   Min. Depth
                                   Hours       Above Crown    Below Rim
  Node                 Type      Surcharged         Meters       Meters
  ---------------------------------------------------------------------
  WS01000070           JUNCTION        4.00          0.000        0.000
  WS01000323           JUNCTION        4.00          0.000        0.000
  WS01000533           JUNCTION        4.00          0.000        2.147
  WS01005172           JUNCTION        4.00          0.000        0.000
  WS01005181           JUNCTION        4.00          0.000        0.000
  WS01009841           JUNCTION        4.00          0.000        0.000
  WS02000078           JUNCTION        4.00          0.000        0.000
  WS02000112           JUNCTION        4.00          0.000        0.000
  WS02000136           JUNCTION        4.00          0.000        0.000
  WS02004053           JUNCTION        4.00          0.000        0.000
  WS02004997           JUNCTION        1.76          5.442        0.558
  WS02006183           JUNCTION        4.00          0.000        0.000
  WS02618401           JUNCTION        4.00          0.000        0.000
  WS8802               JUNCTION        4.00          0.000        4.942
  WSA1649              JUNCTION        4.00          0.000        0.000
  XR-Inflow            JUNCTION        1.74          5.323        0.327
  WS02004114           JUNCTION        1.76          5.378        1.137
  
  
  *********************
  Node Flooding Summary
  *********************
  
  No nodes were flooded.
  
  
  **********************
  Storage Volume Summary
  **********************
  
  --------------------------------------------------------------------------------------------------
                         Average     Avg  Evap Exfil       Maximum     Max    Time of Max    Maximum
                          Volume    Pcnt  Pcnt  Pcnt        Volume    Pcnt     Occurrence    Outflow
  Storage Unit           1000 m3    Full  Loss  Loss       1000 m3    Full    days hr:min        MLD
  --------------------------------------------------------------------------------------------------
  XR-storage               0.051      81     0     0         0.059      95       0  03:00      60.34
  CC-storage               0.054      34     0     0         0.085      54       0  02:11      17.28
  JK-storage               0.054      40     0     0         0.085      63       0  02:08      17.28
  
  
  ***********************
  Outfall Loading Summary
  ***********************
  
  ---------------------------------------------------------------------------------------------------------------------------------
                         Flow       Avg       Max       Total         Total         Total         Total         Total         Total
                         Freq      Flow      Flow      Volume           COD         NH3-N            TN            TP            SS
  Outfall Node           Pcnt       MLD       MLD    10^6 ltr            kg            kg            kg            kg            kg
  ---------------------------------------------------------------------------------------------------------------------------------
  outfall-24            79.93     21.37     27.86       1.371       136.066         0.000         0.000         0.000         0.000
  outfall-2              0.00      0.00      0.00       0.000         0.000         0.000         0.000         0.000         0.000
  outfall-5              0.00      0.00      0.00       0.000         0.000         0.000         0.000         0.000         0.000
  outfall-8              0.00      0.00      0.00       0.000         0.000         0.000         0.000         0.000         0.000
  outfall-14             0.00      0.00      0.00       0.000         0.000         0.000         0.000         0.000         0.000
  outfall-16             0.00      0.00      0.00       0.000         0.000         0.000         0.000         0.000         0.000
  outfall-17             0.00      0.00      0.00       0.000         0.000         0.000         0.000         0.000         0.000
  outfall-27             0.00      0.00      0.00       0.000         0.000         0.000         0.000         0.000         0.000
  outfall-28             0.00      0.00      0.00       0.000         0.000         0.000         0.000         0.000         0.000
  67                     0.00      0.00      0.00       0.000         0.000         0.000         0.000         0.000         0.000
  12                    99.99     71.41     97.76       9.003      1166.531         0.000         0.000         0.000         0.000
  ---------------------------------------------------------------------------------------------------------------------------------
  System                16.36     92.78    124.42      10.374      1302.598         0.000         0.000         0.000         0.000
  
  
  ********************
  Link Flow Summary
  ********************
  
  -----------------------------------------------------------------------------
                                 Maximum  Time of Max   Maximum    Max/    Max/
                                  |Flow|   Occurrence   |Veloc|    Full    Full
  Link                 Type          MLD  days hr:min     m/sec    Flow   Depth
  -----------------------------------------------------------------------------
  WSL49                CONDUIT    111.02     0  02:47      2.04    1.38    0.61
  WSL50                CONDUIT     12.64     0  02:44      1.69    0.87    0.35
  WSL51                CONDUIT     12.57     0  02:44      1.03    1.28    0.50
  WSL52                CONDUIT     12.55     0  02:43      0.90    0.58    0.55
  WSL53                CONDUIT     12.54     0  02:43      0.84    1.30    0.59
  WSL54                CONDUIT     12.55     0  02:43      0.78    1.00    0.63
  WSL55                CONDUIT     12.51     0  02:42      0.85    0.33    0.58
  WSL77                CONDUIT     12.53     0  02:42      0.95    0.66    0.54
  WSL78                CONDUIT     12.54     0  02:42      0.89    0.82    0.57
  WSL79                CONDUIT     12.60     0  02:42      0.92    0.43    0.55
  WSL80                CONDUIT     12.72     0  02:41      1.21    0.29    0.45
  WSL81                CONDUIT     13.02     0  02:41      1.34    0.96    0.42
  WSL82                CONDUIT     12.93     0  02:40      1.58    0.17    0.37
  WSL83                CONDUIT     12.81     0  02:40      2.36    0.16    0.28
  WSL84                CONDUIT      8.73     0  02:30      1.39    0.27    0.30
  WSL85                CONDUIT      0.42     0  01:25      0.40    0.01    0.55
  WSL86                CONDUIT      0.07     0  03:17      0.20    0.00    0.40
  WSL122               CONDUIT     10.32     0  02:35      0.65    1.03    0.62
  WSL123               CONDUIT     13.29     0  02:40      1.76    0.49    0.35
  WSL144               CONDUIT      9.91     0  02:33      0.65    0.39    0.60
  WSL145               CONDUIT     10.28     0  02:35      0.63    0.97    0.64
  WSL146               CONDUIT     11.02     0  02:35      0.72    0.81    0.60
  WSL147               CONDUIT     11.05     0  02:37      0.71    0.57    0.61
  WSL148               CONDUIT     11.07     0  02:37      0.72    1.05    0.60
  WSL149               CONDUIT     12.04     0  02:37      0.99    1.58    0.50
  WSL150               CONDUIT     12.17     0  02:39      1.33    0.40    0.40
  WSL151               CONDUIT     12.19     0  02:39      1.32    0.31    0.41
  WSL500               CONDUIT      7.56     0  02:30      1.36    0.25    0.28
  WSL502               CONDUIT      8.36     0  02:29      1.43    0.13    0.29
  WSL508               CONDUIT      3.43     0  02:22      0.72    0.13    0.29
  WSL509               CONDUIT      3.33     0  02:27      0.70    0.15    0.25
  WSL551               CONDUIT      3.47     0  02:25      0.97    0.08    0.20
  WSL553               CONDUIT      3.51     0  02:26      0.74    0.10    0.25
  WSL554               CONDUIT      3.55     0  02:27      0.67    0.18    0.27
  WSL555               CONDUIT      3.61     0  02:27      0.75    0.15    0.25
  WSL1465              CONDUIT     36.41     0  02:53      1.42    0.33    0.53
  WSL1472              CONDUIT     80.81     0  02:51      1.59    0.92    0.53
  WSL1475              CONDUIT    124.10     0  02:47      2.79    1.32    0.39
  WSL1476              CONDUIT     16.07     0  02:45      0.83    0.08    0.59
  WSL1477              CONDUIT      4.16     0  02:32      1.70    0.16    0.16
  WSL1490              CONDUIT     34.52     0  02:00      1.36    0.56    0.42
  WSL1491              CONDUIT     34.52     0  02:55      1.31    0.20    0.45
  WSL1492              CONDUIT     35.43     0  02:54      1.26    0.55    0.50
  WSL1506              CONDUIT      0.07     0  01:24      0.40    0.00    0.02
  WSL1507              CONDUIT      0.09     0  01:53      0.21    0.00    0.09
  WSL1508              CONDUIT      1.88     0  02:27      0.56    0.05    0.13
  WSL1512              CONDUIT      1.90     0  02:28      0.42    0.01    0.12
  WSL1513              CONDUIT      1.96     0  02:31      0.35    0.12    0.19
  WSL1515              CONDUIT     52.07     0  02:45      2.27    0.51    0.29
  WSL1516              CONDUIT      3.72     0  02:32      1.55    0.01    0.17
  WSL1518              CONDUIT      3.52     0  02:29      0.60    0.07    0.19
  WSL1519              CONDUIT      3.55     0  02:31      0.57    0.09    0.20
  WSL1521              CONDUIT      3.59     0  02:31      0.63    0.10    0.19
  WSL1525              CONDUIT      8.49     0  02:30      1.66    0.16    0.26
  WSL1526              CONDUIT      8.49     0  02:30      1.44    0.14    0.29
  WSL1529              CONDUIT      8.84     0  02:30      1.38    0.23    0.31
  WSL1530              CONDUIT      8.96     0  02:30      1.29    0.48    0.43
  WSL1532              CONDUIT      9.84     0  02:31      1.03    0.24    0.42
  WSL1543              CONDUIT      3.53     0  02:30      0.55    0.11    0.20
  WSL1545              CONDUIT      9.90     0  02:33      0.76    0.41    0.54
  WSL1641              CONDUIT      3.21     0  02:27      0.66    0.13    0.25
  WSL1642              CONDUIT      2.74     0  02:27      0.69    0.08    0.22
  WSL1643              CONDUIT      2.64     0  02:27      0.82    0.08    0.19
  WSL1644              CONDUIT      2.55     0  02:26      0.67    0.13    0.21
  WSL1646              CONDUIT      2.09     0  02:26      0.60    0.06    0.20
  WSL1647              CONDUIT      2.01     0  02:26      0.71    0.07    0.17
  WSL1652              CONDUIT      1.28     0  02:27      0.54    0.08    0.20
  WSL1764              CONDUIT      8.89     0  02:30      1.22    0.17    0.34
  WSL1931              CONDUIT      1.21     0  02:26      0.50    0.10    0.20
  WSL1932              CONDUIT      1.11     0  02:25      0.46    0.07    0.20
  WSL1934              CONDUIT      1.00     0  02:24      0.60    0.03    0.15
  WSL1935              CONDUIT      0.97     0  02:23      0.68    0.05    0.14
  WSL1961              CONDUIT     33.06     0  01:44      2.59    0.07    0.28
  WSL1964              CONDUIT     34.29     0  01:59      1.21    0.19    0.34
  WSL2010              CONDUIT     38.11     0  02:41      1.28    0.49    0.45
  WSL2011              CONDUIT     38.17     0  02:41      1.16    0.25    0.49
  WSL2012              CONDUIT     37.96     0  02:42      1.04    0.58    0.53
  WSL2013              CONDUIT     38.55     0  02:42      1.09    0.96    0.52
  WSL2014              CONDUIT     39.91     0  02:42      1.21    0.64    0.49
  WSL2015              CONDUIT     39.63     0  02:43      1.27    0.53    0.47
  WSL2016              CONDUIT     40.84     0  02:43      1.37    0.47    0.45
  WSL2017              CONDUIT     40.93     0  02:43      1.48    0.50    0.43
  WSL2018              CONDUIT     43.14     0  02:44      1.96    0.26    0.36
  WSL2019              CONDUIT     43.52     0  02:45      1.81    0.26    0.40
  WSL2028              CONDUIT     38.32     0  02:41      1.27    0.41    0.46
  WSL2029              CONDUIT     41.28     0  02:44      1.73    0.52    0.38
  WSL2031              CONDUIT      0.90     0  02:23      0.64    0.03    0.14
  WSL2032              CONDUIT      0.83     0  02:23      0.76    0.06    0.16
  WSL2034              CONDUIT      4.27     0  02:17      0.66    0.13    0.35
  WSL2037              CONDUIT      4.52     0  02:22      0.57    0.23    0.41
  WSL2038              CONDUIT      6.93     0  02:21      0.85    0.35    0.44
  WSL2039              CONDUIT     10.96     0  02:41      1.46    0.56    0.50
  WSL2041              CONDUIT      7.54     0  02:20      0.96    0.37    0.47
  WSL2124              CONDUIT      5.32     0  02:27      0.97    0.13    0.28
  WSL2126              CONDUIT      5.36     0  02:27      0.82    0.21    0.31
  WSL2127              CONDUIT      5.42     0  02:28      0.97    0.29    0.28
  WSL2128              CONDUIT      5.47     0  02:28      0.98    0.13    0.28
  WSL2130              CONDUIT      7.36     0  02:28      1.16    0.22    0.31
  WSL2146              CONDUIT      7.42     0  02:28      1.04    0.19    0.33
  WSL2147              CONDUIT      7.45     0  02:29      1.05    0.40    0.33
  WSL2148              CONDUIT      7.50     0  02:29      1.19    0.18    0.30
  WSL2294              CONDUIT     39.02     0  02:39      1.29    1.31    0.66
  WSL2295              CONDUIT     38.55     0  02:39      1.48    1.73    0.58
  WSL2296              CONDUIT     41.35     0  02:40      2.01    0.23    0.49
  WSL2297              CONDUIT     39.94     0  02:40      1.29    0.77    0.47
  WSL2298              CONDUIT     40.71     0  02:39      2.27    1.87    0.44
  WSL2301              CONDUIT     39.03     0  02:40      1.31    0.36    0.45
  WSL2302              CONDUIT     38.78     0  02:41      1.28    0.48    0.46
  WSL2357              CONDUIT      1.14     0  02:24      0.83    0.21    0.28
  WSL2358              CONDUIT      1.20     0  02:24      1.02    0.14    0.25
  WSL2359              CONDUIT      1.23     0  02:25      0.54    0.05    0.19
  WSL2361              CONDUIT      2.25     0  02:25      0.76    0.13    0.23
  WSL2362              CONDUIT      2.30     0  02:26      0.80    0.11    0.23
  WSL2441              CONDUIT     40.36     0  02:38      1.24    1.03    0.70
  WSL2442              CONDUIT     39.49     0  02:38      1.41    1.01    0.78
  WSL2443              CONDUIT     40.24     0  02:38      1.57    0.63    0.72
  WSL2444              CONDUIT     40.50     0  02:37      1.83    0.64    0.63
  WSL2446              CONDUIT     39.12     0  02:37      1.85    0.67    0.61
  WSL2447              CONDUIT     38.41     0  02:37      1.71    1.98    0.66
  WSL2448              CONDUIT     38.34     0  02:37      1.52    1.08    0.71
  WSL2449              CONDUIT     28.17     0  02:39      1.30    0.98    0.71
  WSL2450              CONDUIT     26.78     0  02:39      1.28    0.56    0.67
  WSL2451              CONDUIT     25.94     0  02:40      1.21    1.69    0.65
  WSL2452              CONDUIT     25.15     0  02:41      1.25    0.48    0.62
  WSL2454              CONDUIT     24.59     0  02:41      1.46    0.57    0.55
  WSL2478              CONDUIT     24.40     0  02:40      1.29    0.86    0.57
  WSL2479              CONDUIT     23.43     0  02:38      1.26    0.45    0.55
  WSL2480              CONDUIT     23.31     0  02:37      1.28    1.08    0.54
  WSL2482              CONDUIT     23.31     0  02:37      1.25    0.61    0.56
  WSL2484              CONDUIT     23.11     0  02:37      1.83    0.33    0.50
  WSL2493              CONDUIT     38.75     0  02:38      1.20    0.65    0.70
  WSL2867              CONDUIT     48.49     0  02:46      3.31    0.10    0.21
  WSL2868              CONDUIT     46.54     0  02:46      1.63    0.09    0.34
  5                    CONDUIT      2.00     0  02:25      0.77    0.09    0.21
  WSL348               CONDUIT     59.40     0  03:00      1.88    0.54    1.00
  WSL175               CONDUIT     59.81     0  03:00      2.29    2.01    1.00
  WSL1467              CONDUIT     76.02     0  02:45      1.55    0.40    0.53
  WSL1473              CONDUIT     84.75     0  02:52      1.65    0.35    0.57
  XRpipe               CONDUIT     60.35     0  03:00      2.54    0.15    1.00
  8                    CONDUIT      0.00     0  00:00      0.00    0.00    0.00
  19                   CONDUIT      0.00     0  00:00      0.00    0.00    0.00
  17                   CONDUIT      0.00     0  00:00      0.00    0.00    0.00
  4                    CONDUIT      0.00     0  00:00      0.00    0.00    0.00
  outletpipe           CONDUIT     27.86     0  03:00     10.81    0.09    0.21
  11                   CONDUIT      0.00     0  00:00      0.00    0.00    0.00
  20                   CONDUIT      0.00     0  00:00      0.00    0.00    0.00
  1                    CONDUIT      0.00     0  00:00      0.00    0.00    0.00
  28                   CONDUIT      0.00     0  00:00      0.00    0.00    0.00
  30                   CONDUIT      0.00     0  00:00      0.00    0.00    0.00
  2                    CONDUIT     97.76     0  02:53      3.72    0.35    0.41
  XR-Pump-1            PUMP         8.12     0  00:02              1.00
  XR-Pump-3            PUMP         8.12     0  00:09              1.00
  XR-Pump-2            PUMP         8.12     0  00:04              1.00
  XR-Pump-4            PUMP         8.12     0  01:43              1.00
  CC-Pump-1            PUMP        17.28     0  01:05              1.00
  CC-Pump-2            PUMP         0.00     0  00:00              0.00
  JK-Pump-1            PUMP        17.28     0  01:35              1.00
  JK-Pump-2            PUMP         0.00     0  00:00              0.00
  
  
  ***************************
  Flow Classification Summary
  ***************************
  
  -------------------------------------------------------------------------------------
                      Adjusted    ---------- Fraction of Time in Flow Class ---------- 
                       /Actual         Up    Down  Sub   Sup   Up    Down  Norm  Inlet 
  Conduit               Length    Dry  Dry   Dry   Crit  Crit  Crit  Crit  Ltd   Ctrl  
  -------------------------------------------------------------------------------------
  WSL49                   1.00   0.00  0.00  0.00  1.00  0.00  0.00  0.00  0.00  0.00
  WSL50                   1.00   0.00  0.00  0.00  0.04  0.96  0.00  0.00  0.00  0.00
  WSL51                   1.00   0.00  0.00  0.00  1.00  0.00  0.00  0.00  0.01  0.00
  WSL52                   1.00   0.00  0.00  0.00  1.00  0.00  0.00  0.00  0.09  0.00
  WSL53                   1.00   0.00  0.00  0.00  1.00  0.00  0.00  0.00  0.01  0.00
  WSL54                   1.00   0.00  0.00  0.00  1.00  0.00  0.00  0.00  0.00  0.00
  WSL55                   1.00   0.00  0.00  0.00  1.00  0.00  0.00  0.00  0.21  0.00
  WSL77                   1.00   0.00  0.00  0.00  1.00  0.00  0.00  0.00  0.00  0.00
  WSL78                   1.00   0.00  0.00  0.00  1.00  0.00  0.00  0.00  0.00  0.00
  WSL79                   1.00   0.00  0.00  0.00  1.00  0.00  0.00  0.00  0.38  0.00
  WSL80                   1.00   0.00  0.00  0.00  1.00  0.00  0.00  0.00  0.60  0.00
  WSL81                   1.00   0.00  0.00  0.00  1.00  0.00  0.00  0.00  0.00  0.00
  WSL82                   1.00   0.00  0.00  0.00  0.09  0.91  0.00  0.00  0.91  0.00
  WSL83                   1.00   0.00  0.00  0.00  0.00  1.00  0.00  0.00  0.60  0.00
  WSL84                   1.00   0.00  0.00  0.00  0.02  0.98  0.00  0.00  0.03  0.00
  WSL85                   1.00   0.00  0.00  0.00  1.00  0.00  0.00  0.00  0.12  0.00
  WSL86                   1.00   0.00  0.00  0.00  1.00  0.00  0.00  0.00  0.55  0.00
  WSL122                  1.00   0.00  0.00  0.00  1.00  0.00  0.00  0.00  0.00  0.00
  WSL123                  1.00   0.00  0.00  0.00  0.02  0.98  0.00  0.00  0.02  0.00
  WSL144                  1.00   0.00  0.00  0.00  1.00  0.00  0.00  0.00  0.28  0.00
  WSL145                  1.00   0.00  0.00  0.00  1.00  0.00  0.00  0.00  0.01  0.00
  WSL146                  1.00   0.00  0.00  0.00  1.00  0.00  0.00  0.00  0.03  0.00
  WSL147                  1.00   0.00  0.00  0.00  1.00  0.00  0.00  0.00  0.04  0.00
  WSL148                  1.00   0.00  0.00  0.00  1.00  0.00  0.00  0.00  0.00  0.00
  WSL149                  1.00   0.00  0.00  0.00  1.00  0.00  0.00  0.00  0.01  0.00
  WSL150                  1.00   0.00  0.00  0.00  0.40  0.60  0.00  0.00  0.00  0.00
  WSL151                  1.00   0.00  0.00  0.00  0.81  0.19  0.00  0.00  0.13  0.00
  WSL500                  1.00   0.00  0.00  0.00  0.01  0.99  0.00  0.00  0.00  0.00
  WSL502                  1.00   0.00  0.00  0.00  0.01  0.99  0.00  0.00  1.00  0.00
  WSL508                  1.00   0.00  0.00  0.00  1.00  0.00  0.00  0.00  0.05  0.00
  WSL509                  1.00   0.00  0.00  0.00  1.00  0.00  0.00  0.00  0.02  0.00
  WSL551                  1.00   0.00  0.00  0.00  0.39  0.61  0.00  0.00  0.89  0.00
  WSL553                  1.00   0.00  0.00  0.00  1.00  0.00  0.00  0.00  1.00  0.00
  WSL554                  1.00   0.00  0.00  0.00  1.00  0.00  0.00  0.00  0.24  0.00
  WSL555                  1.00   0.00  0.00  0.00  1.00  0.00  0.00  0.00  0.00  0.00
  WSL1465                 1.00   0.00  0.00  0.00  1.00  0.00  0.00  0.00  0.05  0.00
  WSL1472                 1.00   0.00  0.00  0.00  1.00  0.00  0.00  0.00  0.00  0.00
  WSL1475                 1.00   0.00  0.00  0.00  0.25  0.75  0.00  0.00  0.01  0.00
  WSL1476                 1.00   0.00  0.00  0.00  1.00  0.00  0.00  0.00  1.00  0.00
  WSL1477                 1.00   0.00  0.00  0.00  0.00  1.00  0.00  0.00  0.17  0.00
  WSL1490                 1.00   0.00  0.00  0.00  1.00  0.00  0.00  0.00  0.00  0.00
  WSL1491                 1.00   0.00  0.00  0.00  1.00  0.00  0.00  0.00  0.02  0.00
  WSL1492                 1.00   0.00  0.00  0.00  1.00  0.00  0.00  0.00  0.00  0.00
  WSL1506                 1.00   0.00  0.00  0.00  1.00  0.00  0.00  0.00  0.99  0.00
  WSL1507                 1.00   0.00  0.00  0.00  1.00  0.00  0.00  0.00  1.00  0.00
  WSL1508                 1.00   0.00  0.00  0.00  1.00  0.00  0.00  0.00  0.00  0.00
  WSL1512                 1.00   0.00  0.00  0.00  1.00  0.00  0.00  0.00  1.00  0.00
  WSL1513                 1.00   0.00  0.00  0.00  1.00  0.00  0.00  0.00  0.00  0.00
  WSL1515                 1.00   0.00  0.00  0.00  0.03  0.97  0.00  0.00  0.02  0.00
  WSL1516                 1.00   0.00  0.00  0.00  0.00  1.00  0.00  0.00  1.00  0.00
  WSL1518                 1.00   0.00  0.00  0.00  1.00  0.00  0.00  0.00  0.83  0.00
  WSL1519                 1.00   0.00  0.00  0.00  1.00  0.00  0.00  0.00  0.39  0.00
  WSL1521                 1.00   0.00  0.00  0.00  1.00  0.00  0.00  0.00  0.02  0.00
  WSL1525                 1.00   0.00  0.00  0.00  0.00  1.00  0.00  0.00  0.14  0.00
  WSL1526                 1.00   0.00  0.00  0.00  0.01  0.99  0.00  0.00  0.71  0.00
  WSL1529                 1.00   0.00  0.00  0.00  0.01  0.99  0.00  0.00  0.93  0.00
  WSL1530                 1.00   0.00  0.00  0.00  0.15  0.85  0.00  0.00  0.00  0.00
  WSL1532                 1.00   0.00  0.00  0.00  1.00  0.00  0.00  0.00  1.00  0.00
  WSL1543                 1.00   0.00  0.00  0.00  1.00  0.00  0.00  0.00  0.02  0.00
  WSL1545                 1.00   0.00  0.00  0.00  1.00  0.00  0.00  0.00  0.06  0.00
  WSL1641                 1.00   0.00  0.00  0.00  1.00  0.00  0.00  0.00  0.47  0.00
  WSL1642                 1.00   0.00  0.00  0.00  1.00  0.00  0.00  0.00  0.98  0.00
  WSL1643                 1.00   0.00  0.00  0.00  1.00  0.00  0.00  0.00  0.56  0.00
  WSL1644                 1.00   0.00  0.00  0.00  1.00  0.00  0.00  0.00  0.02  0.00
  WSL1646                 1.00   0.00  0.00  0.00  1.00  0.00  0.00  0.00  0.99  0.00
  WSL1647                 1.00   0.00  0.00  0.00  1.00  0.00  0.00  0.00  0.02  0.00
  WSL1652                 1.00   0.00  0.00  0.00  1.00  0.00  0.00  0.00  0.43  0.00
  WSL1764                 1.00   0.00  0.00  0.00  0.11  0.89  0.00  0.00  0.44  0.00
  WSL1931                 1.00   0.00  0.00  0.00  1.00  0.00  0.00  0.00  0.00  0.00
  WSL1932                 1.00   0.00  0.00  0.00  1.00  0.00  0.00  0.00  0.99  0.00
  WSL1934                 1.00   0.00  0.00  0.00  1.00  0.00  0.00  0.00  1.00  0.00
  WSL1935                 1.00   0.00  0.00  0.00  1.00  0.00  0.00  0.00  0.00  0.00
  WSL1961                 1.00   0.00  0.00  0.00  0.00  1.00  0.00  0.00  0.99  0.00
  WSL1964                 1.00   0.00  0.00  0.00  1.00  0.00  0.00  0.00  0.01  0.00
  WSL2010                 1.00   0.00  0.00  0.00  1.00  0.00  0.00  0.00  0.00  0.00
  WSL2011                 1.00   0.00  0.00  0.00  1.00  0.00  0.00  0.00  0.13  0.00
  WSL2012                 1.00   0.00  0.00  0.00  1.00  0.00  0.00  0.00  0.01  0.00
  WSL2013                 1.00   0.00  0.00  0.00  1.00  0.00  0.00  0.00  0.00  0.00
  WSL2014                 1.00   0.00  0.00  0.00  1.00  0.00  0.00  0.00  0.00  0.00
  WSL2015                 1.00   0.00  0.00  0.00  1.00  0.00  0.00  0.00  0.02  0.00
  WSL2016                 1.00   0.00  0.00  0.00  1.00  0.00  0.00  0.00  0.08  0.00
  WSL2017                 1.00   0.00  0.00  0.00  1.00  0.00  0.00  0.00  0.04  0.00
  WSL2018                 1.00   0.00  0.00  0.00  0.00  1.00  0.00  0.00  0.29  0.00
  WSL2019                 1.00   0.00  0.00  0.00  0.06  0.94  0.00  0.00  0.11  0.00
  WSL2028                 1.00   0.00  0.00  0.00  1.00  0.00  0.00  0.00  0.08  0.00
  WSL2029                 1.00   0.00  0.00  0.00  0.17  0.83  0.00  0.00  0.00  0.00
  WSL2031                 1.00   0.00  0.00  0.00  1.00  0.00  0.00  0.00  1.00  0.00
  WSL2032                 1.00   0.00  0.00  0.00  0.38  0.62  0.00  0.00  0.75  0.00
  WSL2034                 1.00   0.00  0.00  0.00  1.00  0.00  0.00  0.00  0.07  0.00
  WSL2037                 1.00   0.00  0.00  0.00  1.00  0.00  0.00  0.00  0.03  0.00
  WSL2038                 1.00   0.00  0.00  0.00  1.00  0.00  0.00  0.00  0.05  0.00
  WSL2039                 1.00   0.00  0.00  0.00  0.53  0.47  0.00  0.00  0.01  0.00
  WSL2041                 1.00   0.00  0.00  0.00  1.00  0.00  0.00  0.00  0.03  0.00
  WSL2124                 1.00   0.00  0.00  0.00  1.00  0.00  0.00  0.00  0.89  0.00
  WSL2126                 1.00   0.00  0.00  0.00  1.00  0.00  0.00  0.00  0.74  0.00
  WSL2127                 1.00   0.00  0.00  0.00  1.00  0.00  0.00  0.00  0.00  0.00
  WSL2128                 1.00   0.00  0.00  0.00  1.00  0.00  0.00  0.00  0.99  0.00
  WSL2130                 1.00   0.00  0.00  0.00  0.48  0.52  0.00  0.00  0.01  0.00
  WSL2146                 1.00   0.00  0.00  0.00  1.00  0.00  0.00  0.00  0.88  0.00
  WSL2147                 1.00   0.00  0.00  0.00  1.00  0.00  0.00  0.00  0.01  0.00
  WSL2148                 1.00   0.00  0.00  0.00  0.36  0.64  0.00  0.00  0.57  0.00
  WSL2294                 1.00   0.00  0.00  0.00  1.00  0.00  0.00  0.00  0.00  0.00
  WSL2295                 1.00   0.00  0.00  0.00  1.00  0.00  0.00  0.00  0.00  0.00
  WSL2296                 1.00   0.00  0.00  0.00  0.08  0.92  0.00  0.00  0.78  0.00
[...]
  WSL1473                 1.00   0.00  0.00  0.00  1.00  0.00  0.00  0.00  0.03  0.00
  XRpipe                  1.00   0.00  0.00  0.00  1.00  0.00  0.00  0.00  0.01  0.00
  8                       1.00   1.00  0.00  0.00  0.00  0.00  0.00  0.00  0.00  0.00
  19                      1.00   1.00  0.00  0.00  0.00  0.00  0.00  0.00  0.00  0.00
  17                      1.00   1.00  0.00  0.00  0.00  0.00  0.00  0.00  0.00  0.00
  4                       1.00   1.00  0.00  0.00  0.00  0.00  0.00  0.00  0.00  0.00
  outletpipe              1.00   0.20  0.00  0.00  0.00  0.80  0.00  0.00  0.00  0.00
  11                      1.00   1.00  0.00  0.00  0.00  0.00  0.00  0.00  0.00  0.00
  20                      1.00   1.00  0.00  0.00  0.00  0.00  0.00  0.00  0.00  0.00
  1                       1.00   1.00  0.00  0.00  0.00  0.00  0.00  0.00  0.00  0.00
  28                      1.00   1.00  0.00  0.00  0.00  0.00  0.00  0.00  0.00  0.00
  30                      1.00   1.00  0.00  0.00  0.00  0.00  0.00  0.00  0.00  0.00
  2                       1.00   0.00  0.00  0.00  0.00  1.00  0.00  0.00  0.33  0.00
  
  
  *************************
  Conduit Surcharge Summary
  *************************
  
  ----------------------------------------------------------------------------
                                                           Hours        Hours 
                         --------- Hours Full --------   Above Full   Capacity
  Conduit                Both Ends  Upstream  Dnstream   Normal Flow   Limited
  ----------------------------------------------------------------------------
  WSL49                       0.01      0.01      0.01      0.57         0.01
  WSL51                       0.01      0.01      0.01      0.79         0.01
  WSL53                       0.01      0.01      0.01      0.82         0.01
  WSL54                       0.01      0.01      0.01      0.02         0.01
  WSL122                      0.01      0.01      0.01      0.23         0.01
  WSL148                      0.01      0.01      0.01      0.31         0.01
  WSL149                      0.01      0.01      0.01      1.07         0.01
  WSL1475                     0.01      0.01      0.01      0.24         0.01
  WSL2294                     0.01      0.01      0.01      0.17         0.01
  WSL2295                     0.01      0.01      0.01      0.79         0.01
  WSL2298                     0.01      0.01      0.01      0.93         0.01
  WSL2441                     0.01      0.01      0.01      0.01         0.01
  WSL2442                     0.01      0.01      0.01      0.01         0.01
  WSL2447                     0.01      0.01      0.01      0.88         0.01
  WSL2448                     0.01      0.01      0.01      0.03         0.01
  WSL2451                     0.01      0.01      0.01      0.65         0.01
  WSL2480                     0.01      0.01      0.01      0.18         0.01
  WSL348                      1.74      1.74      1.76      0.01         0.01
  WSL175                      1.76      1.76      1.76      2.13         1.75
  XRpipe                      1.76      1.76      3.96      0.01         0.01
  
  
  ***************
  Pumping Summary
  ***************
  
  ---------------------------------------------------------------------------------------------------------
                                                  Min       Avg       Max     Total     Power    % Time Off
                        Percent   Number of      Flow      Flow      Flow    Volume     Usage    Pump Curve
  Pump                 Utilized   Start-Ups       MLD       MLD       MLD  10^6 ltr     Kw-hr    Low   High
  ---------------------------------------------------------------------------------------------------------
  XR-Pump-1               98.82           1      0.00      8.12      8.12     1.337     11.20    0.0    0.0
  XR-Pump-3               91.10           7      0.00      8.12      8.12     1.233      9.85    0.0    0.0
  XR-Pump-2               98.05           1      0.00      8.12      8.12     1.327     11.06    0.0    0.0
  XR-Pump-4               54.82           3      0.00      8.12      8.12     0.742      3.51    0.0    0.0
  CC-Pump-1               19.79           7      0.00     17.28     17.28     0.570      4.54    0.0    0.0
  CC-Pump-2                0.00           0      0.00      0.00      0.00     0.000      0.00    0.0    0.0
  JK-Pump-1               15.42           6      0.00     17.28     17.28     0.444      3.08    0.0    0.0
  JK-Pump-2                0.00           0      0.00      0.00      0.00     0.000      0.00    0.0    0.0
  
  
  ***************************
  Link Pollutant Load Summary
  ***************************
  
  ------------------------------------------------------------------------------------------
                                 COD         NH3-N            TN            TP            SS
  Link                            kg            kg            kg            kg            kg
  ------------------------------------------------------------------------------------------
  WSL49                     1130.908         0.000         0.000         0.000         0.000
  WSL50                      112.001         0.000         0.000         0.000         0.000
  WSL51                      110.520         0.000         0.000         0.000         0.000
  WSL52                      110.344         0.000         0.000         0.000         0.000
  WSL53                      109.653         0.000         0.000         0.000         0.000
  WSL54                      109.668         0.000         0.000         0.000         0.000
  WSL55                      108.507         0.000         0.000         0.000         0.000
  WSL77                      108.215         0.000         0.000         0.000         0.000
  WSL78                      107.578         0.000         0.000         0.000         0.000
  WSL79                      106.595         0.000         0.000         0.000         0.000
  WSL80                      105.121         0.000         0.000         0.000         0.000
  WSL81                      103.415         0.000         0.000         0.000         0.000
  WSL82                      102.540         0.000         0.000         0.000         0.000
  WSL83                      102.316         0.000         0.000         0.000         0.000
  WSL84                       59.411         0.000         0.000         0.000         0.000
  WSL85                        3.356         0.000         0.000         0.000         0.000
  WSL86                        0.944         0.000         0.000         0.000         0.000
  WSL122                      87.360         0.000         0.000         0.000         0.000
  WSL123                     101.243         0.000         0.000         0.000         0.000
  WSL144                      77.454         0.000         0.000         0.000         0.000
  WSL145                      86.227         0.000         0.000         0.000         0.000
  WSL146                      90.395         0.000         0.000         0.000         0.000
  WSL147                      90.818         0.000         0.000         0.000         0.000
  WSL148                      90.802         0.000         0.000         0.000         0.000
  WSL149                      99.247         0.000         0.000         0.000         0.000
  WSL150                     100.732         0.000         0.000         0.000         0.000
  WSL151                     100.942         0.000         0.000         0.000         0.000
  WSL500                      53.385         0.000         0.000         0.000         0.000
  WSL502                      57.848         0.000         0.000         0.000         0.000
  WSL508                      39.242         0.000         0.000         0.000         0.000
  WSL509                      37.316         0.000         0.000         0.000         0.000
  WSL551                      24.882         0.000         0.000         0.000         0.000
  WSL553                      25.958         0.000         0.000         0.000         0.000
  WSL554                      27.197         0.000         0.000         0.000         0.000
  WSL555                      28.766         0.000         0.000         0.000         0.000
  WSL1465                    620.579         0.000         0.000         0.000         0.000
  WSL1472                    989.346         0.000         0.000         0.000         0.000
  WSL1475                   1149.228         0.000         0.000         0.000         0.000
  WSL1476                    138.434         0.000         0.000         0.000         0.000
  WSL1477                     24.701         0.000         0.000         0.000         0.000
  WSL1490                    605.639         0.000         0.000         0.000         0.000
  WSL1491                    609.693         0.000         0.000         0.000         0.000
  WSL1492                    616.622         0.000         0.000         0.000         0.000
  WSL1506                      1.646         0.000         0.000         0.000         0.000
  WSL1507                      2.135         0.000         0.000         0.000         0.000
  WSL1508                     13.483         0.000         0.000         0.000         0.000
  WSL1512                     13.930         0.000         0.000         0.000         0.000
  WSL1513                     15.600         0.000         0.000         0.000         0.000
  WSL1515                    356.580         0.000         0.000         0.000         0.000
  WSL1516                     25.414         0.000         0.000         0.000         0.000
  WSL1518                     21.964         0.000         0.000         0.000         0.000
  WSL1519                     22.719         0.000         0.000         0.000         0.000
  WSL1521                     23.829         0.000         0.000         0.000         0.000
  WSL1525                     60.857         0.000         0.000         0.000         0.000
  WSL1526                     61.286         0.000         0.000         0.000         0.000
  WSL1529                     64.286         0.000         0.000         0.000         0.000
  WSL1530                     67.667         0.000         0.000         0.000         0.000
  WSL1532                     72.394         0.000         0.000         0.000         0.000
  WSL1543                     22.265         0.000         0.000         0.000         0.000
  WSL1545                     76.121         0.000         0.000         0.000         0.000
  WSL1641                     34.123         0.000         0.000         0.000         0.000
  WSL1642                     31.271         0.000         0.000         0.000         0.000
  WSL1643                     28.566         0.000         0.000         0.000         0.000
  WSL1644                     25.875         0.000         0.000         0.000         0.000
  WSL1646                     22.818         0.000         0.000         0.000         0.000
  WSL1647                     20.721         0.000         0.000         0.000         0.000
  WSL1652                     17.154         0.000         0.000         0.000         0.000
  WSL1764                     65.823         0.000         0.000         0.000         0.000
  WSL1931                     15.183         0.000         0.000         0.000         0.000
  WSL1932                     12.405         0.000         0.000         0.000         0.000
  WSL1934                      9.072         0.000         0.000         0.000         0.000
  WSL1935                      8.369         0.000         0.000         0.000         0.000
  WSL1961                    592.401         0.000         0.000         0.000         0.000
  WSL1964                    601.430         0.000         0.000         0.000         0.000
  WSL2010                    277.261         0.000         0.000         0.000         0.000
  WSL2011                    282.732         0.000         0.000         0.000         0.000
  WSL2012                    288.389         0.000         0.000         0.000         0.000
  WSL2013                    293.725         0.000         0.000         0.000         0.000
  WSL2014                    313.805         0.000         0.000         0.000         0.000
  WSL2015                    315.758         0.000         0.000         0.000         0.000
  WSL2016                    331.057         0.000         0.000         0.000         0.000
  WSL2017                    334.045         0.000         0.000         0.000         0.000
  WSL2018                    348.182         0.000         0.000         0.000         0.000
  WSL2019                    350.630         0.000         0.000         0.000         0.000
  WSL2028                    272.117         0.000         0.000         0.000         0.000
  WSL2029                    339.697         0.000         0.000         0.000         0.000
  WSL2031                      6.218         0.000         0.000         0.000         0.000
  WSL2032                      4.378         0.000         0.000         0.000         0.000
  WSL2034                     40.401         0.000         0.000         0.000         0.000
  WSL2037                     41.562         0.000         0.000         0.000         0.000
  WSL2038                     51.435         0.000         0.000         0.000         0.000
  WSL2039                     58.307         0.000         0.000         0.000         0.000
  WSL2041                     54.767         0.000         0.000         0.000         0.000
  WSL2124                     36.438         0.000         0.000         0.000         0.000
  WSL2126                     37.386         0.000         0.000         0.000         0.000
  WSL2127                     38.904         0.000         0.000         0.000         0.000
  WSL2128                     40.490         0.000         0.000         0.000         0.000
  WSL2130                     48.427         0.000         0.000         0.000         0.000
  WSL2146                     49.883         0.000         0.000         0.000         0.000
  WSL2147                     50.731         0.000         0.000         0.000         0.000
  WSL2148                     51.883         0.000         0.000         0.000         0.000
  WSL2294                    248.759         0.000         0.000         0.000         0.000
  WSL2295                    250.208         0.000         0.000         0.000         0.000
  WSL2296                    259.961         0.000         0.000         0.000         0.000
  WSL2297                    264.041         0.000         0.000         0.000         0.000
  WSL2298                    254.008         0.000         0.000         0.000         0.000
  WSL2301                    265.688         0.000         0.000         0.000         0.000
  WSL2302                    271.173         0.000         0.000         0.000         0.000
  WSL2357                      7.987         0.000         0.000         0.000         0.000
  WSL2358                      9.602         0.000         0.000         0.000         0.000
  WSL2359                     10.599         0.000         0.000         0.000         0.000
  WSL2361                     18.344         0.000         0.000         0.000         0.000
  WSL2362                     19.704         0.000         0.000         0.000         0.000
  WSL2441                    247.233         0.000         0.000         0.000         0.000
  WSL2442                    206.714         0.000         0.000         0.000         0.000
  WSL2443                    205.440         0.000         0.000         0.000         0.000
  WSL2444                    202.469         0.000         0.000         0.000         0.000
  WSL2446                    200.758         0.000         0.000         0.000         0.000
  WSL2447                    197.907         0.000         0.000         0.000         0.000
  WSL2448                    194.605         0.000         0.000         0.000         0.000
  WSL2449                    149.221         0.000         0.000         0.000         0.000
  WSL2450                    146.382         0.000         0.000         0.000         0.000
  WSL2451                    144.656         0.000         0.000         0.000         0.000
  WSL2452                    143.696         0.000         0.000         0.000         0.000
  WSL2454                    139.845         0.000         0.000         0.000         0.000
  WSL2478                    138.525         0.000         0.000         0.000         0.000
  WSL2479                    131.941         0.000         0.000         0.000         0.000
  WSL2480                    129.158         0.000         0.000         0.000         0.000
  WSL2482                    125.193         0.000         0.000         0.000         0.000
  WSL2484                    121.156         0.000         0.000         0.000         0.000
  WSL2493                    209.592         0.000         0.000         0.000         0.000
  WSL2867                    358.305         0.000         0.000         0.000         0.000
  WSL2868                    362.094         0.000         0.000         0.000         0.000
  5                           20.260         0.000         0.000         0.000         0.000
  WSL348                     707.576         0.000         0.000         0.000         0.000
  WSL175                     714.472         0.000         0.000         0.000         0.000
  WSL1467                    983.916         0.000         0.000         0.000         0.000
  WSL1473                    993.427         0.000         0.000         0.000         0.000
  XRpipe                     727.496         0.000         0.000         0.000         0.000
  8                            0.000         0.000         0.000         0.000         0.000
  19                           0.000         0.000         0.000         0.000         0.000
  17                           0.000         0.000         0.000         0.000         0.000
  4                            0.000         0.000         0.000         0.000         0.000
  outletpipe                 136.066         0.000         0.000         0.000         0.000
  11                           0.000         0.000         0.000         0.000         0.000
  20                           0.000         0.000         0.000         0.000         0.000
  1                            0.000         0.000         0.000         0.000         0.000
  28                           0.000         0.000         0.000         0.000         0.000
  30                           0.000         0.000         0.000         0.000         0.000
  2                         1166.531         0.000         0.000         0.000         0.000
  XR-Pump-1                  174.101         0.000         0.000         0.000         0.000
  XR-Pump-3                  156.671         0.000         0.000         0.000         0.000
  XR-Pump-2                  172.374         0.000         0.000         0.000         0.000
  XR-Pump-4                   77.248         0.000         0.000         0.000         0.000
  CC-Pump-1                   63.409         0.000         0.000         0.000         0.000
  CC-Pump-2                    0.000         0.000         0.000         0.000         0.000
  JK-Pump-1                   43.892         0.000         0.000         0.000         0.000
  JK-Pump-2                    0.000         0.000         0.000         0.000         0.000
  

  Analysis begun on:  Mon Oct 29 01:03:17 2018
  Analysis ended on:  Mon Oct 29 01:03:19 2018
  Total elapsed time: 00:00:02