
  EPA STORM WATER MANAGEMENT MODEL - VERSION 5.1 (Build 5.2.0.dev1)
  --------------------------------------------------------------

  
  *********************************************************
  NOTE: The summary statistics displayed in this report are
  based on results found at every computational time step,  
  not just on results from each reporting time step.
  *********************************************************
  
  ****************
  Analysis Options
  ****************
  Flow Units ............... MLD
  Process Models:
    Rainfall/Runoff ........ YES
    RDII ................... NO
    Snowmelt ............... NO
    Groundwater ............ NO
    Flow Routing ........... YES
    Ponding Allowed ........ NO
    Water Quality .......... YES
  Infiltration Method ...... GREEN_AMPT
  Flow Routing Method ...... DYNWAVE
  Starting Date ............ 08/28/2015 08:00:00
  Ending Date .............. 08/28/2015 12:00:00
  Antecedent Dry Days ...... 4.0
  Report Time Step ......... 00:01:00
  Wet Time Step ............ 00:01:00
  Dry Time Step ............ 00:01:00
  Routing Time Step ........ 5.00 sec
  Variable Time Step ....... YES
  Maximum Trials ........... 8
  Number of Threads ........ 1
  Head Tolerance ........... 0.001500 m
  
  
  **************************        Volume         Depth
  Runoff Quantity Continuity     hectare-m            mm
  **************************     ---------       -------
  Total Precipitation ......         5.093        15.406
  Evaporation Loss .........         0.000         0.000
  Infiltration Loss ........         2.326         7.035
  Surface Runoff ...........         1.223         3.699
  Final Storage ............         1.547         4.679
  Continuity Error (%) .....        -0.047
  
  
  **************************           COD         NH3-N            TN            TP            SS
  Runoff Quality Continuity             kg            kg            kg            kg            kg
  **************************    ----------    ----------    ----------    ----------    ----------
  Initial Buildup ..........     15404.640         0.000         0.000         0.000         0.000
  Surface Buildup ..........       130.330         0.000         0.000         0.000         0.000
  Wet Deposition ...........         0.000         0.000         0.000         0.000         0.000
  Sweeping Removal .........         0.000         0.000         0.000         0.000         0.000
  Infiltration Loss ........       196.684         0.000         0.000         0.000         0.000
  BMP Removal ..............         0.000         0.000         0.000         0.000         0.000
  Surface Runoff ...........      1873.997         0.000         0.000         0.000         0.000
  Remaining Buildup ........     13461.521         0.000         0.000         0.000         0.000
  Continuity Error (%) .....         0.018         0.000         0.000         0.000         0.000
  
  
  **************************        Volume        Volume
  Flow Routing Continuity        hectare-m      10^6 ltr
  **************************     ---------     ---------
  Dry Weather Inflow .......         0.000         0.000
  Wet Weather Inflow .......         1.220        12.196
  Groundwater Inflow .......         0.000         0.000
  RDII Inflow ..............         0.000         0.000
  External Inflow ..........         0.621         6.206
  External Outflow .........         1.701        17.014
  Flooding Loss ............         0.020         0.203
  Evaporation Loss .........         0.000         0.000
  Exfiltration Loss ........         0.000         0.000
  Initial Stored Volume ....         0.000         0.000
  Final Stored Volume ......         0.120         1.204
  Continuity Error (%) .....        -0.103
  
  
  **************************           COD         NH3-N            TN            TP            SS
  Quality Routing Continuity            kg            kg            kg            kg            kg
  **************************    ----------    ----------    ----------    ----------    ----------
  Dry Weather Inflow .......         0.000         0.000         0.000         0.000         0.000
  Wet Weather Inflow .......      1870.506         0.000         0.000         0.000         0.000
  Groundwater Inflow .......         0.000         0.000         0.000         0.000         0.000
  RDII Inflow ..............         0.000         0.000         0.000         0.000         0.000
  External Inflow ..........      1036.432         0.000         0.000         0.000         0.000
  External Outflow .........      2725.075         0.000         0.000         0.000         0.000
  Flooding Loss ............        35.015         0.000         0.000         0.000         0.000
  Exfiltration Loss ........         0.000         0.000         0.000         0.000         0.000
  Mass Reacted .............         0.000         0.000         0.000         0.000         0.000
  Initial Stored Mass ......         0.000         0.000         0.000         0.000         0.000
  Final Stored Mass ........       147.544         0.000         0.000         0.000         0.000
  Continuity Error (%) .....        -0.024         0.000         0.000         0.000         0.000
  
  
  *************************
  Highest Continuity Errors
  *************************
  Node WS02003123 (5.36%)
  Node WS02003099 (1.20%)
  
  
  ***************************
  Time-Step Critical Elements
  ***************************
  Link outletpipe (84.86%)
  Link WSL2448 (12.83%)
  
  
  ********************************
  Highest Flow Instability Indexes
  ********************************
  Link WSL1477 (55)
  Link WSL1516 (52)
  Link WSL84 (15)
  Link WSL1515 (10)
  Link WSL1521 (10)
  
  
  *************************
  Routing Time Step Summary
  *************************
  Minimum Time Step           :     0.03 sec
  Average Time Step           :     0.93 sec
  Maximum Time Step           :     5.00 sec
  Percent in Steady State     :     0.00
  Average Iterations per Step :     2.23
  Percent Not Converging      :     2.89
  
  
  ***************************
  Subcatchment Runoff Summary
  ***************************
  
  --------------------------------------------------------------------------------------------------------
                            Total      Total      Total      Total      Total       Total     Peak  Runoff
                           Precip      Runon       Evap      Infil     Runoff      Runoff   Runoff   Coeff
  Subcatchment                 mm         mm         mm         mm         mm    10^6 ltr      MLD
  --------------------------------------------------------------------------------------------------------
  1                         15.41      15.94       0.00       8.73      13.63        0.16     3.03   0.435
  2                         15.41       0.00       0.00       7.12       4.82        0.16     3.42   0.313
  3                         15.41       0.00       0.00       7.15       4.58        0.23     4.88   0.298
  4                         15.41       0.00       0.00       7.10       4.96        0.13     2.79   0.322
  5                         15.41      11.91       0.00       8.54      11.16        0.19     3.60   0.408
  6                         15.41       0.00       0.00       7.15       4.60        0.23     4.75   0.299
  7                         15.41       0.00       0.00       6.62       3.98        6.36   114.21   0.258
  8                         15.41       0.00       0.00       7.14       4.69        0.20     4.16   0.304
  9                         15.41       4.62       0.00       7.79       6.61        0.25     4.93   0.330
  10                        15.41       9.41       0.00       8.14       9.33        0.17     3.15   0.376
  11                        15.41       0.00       0.00       7.07       5.14        0.10     2.16   0.334
  13                        15.41      93.30       0.00      11.17      80.35        0.13     2.40   0.739
  14                        15.41      85.92       0.00      11.48      75.05        0.15     2.96   0.741
  16                        15.41      19.04       0.00       8.46      15.68        0.11     1.73   0.455
  17                        15.41       0.00       0.00       7.13       4.77        0.17     3.68   0.309
  18                        15.41       0.00       0.00       7.14       4.67        0.20     4.25   0.303
  19                        15.41       0.00       0.00       7.10       4.99        0.13     2.67   0.324
  20                        15.41       4.50       0.00       7.74       6.84        0.19     3.79   0.344
  21                        15.41      12.56       0.00       8.52      11.51        0.17     3.26   0.412
  22                        15.41       9.34       0.00       8.28       9.75        0.17     3.31   0.394
  23                        15.41       0.00       0.00       6.94       5.88        0.04     0.89   0.381
  24                        15.41       0.00       0.00       7.08       5.08        0.11     2.36   0.330
  25                        15.41       0.00       0.00       7.01       5.52        0.06     1.35   0.358
  26                        15.41       0.00       0.00       7.07       5.14        0.10     2.18   0.333
  27                        15.41       0.00       0.00       7.07       5.15        0.10     2.13   0.334
  28                        15.41      14.73       0.00       8.80      11.46        0.30     5.51   0.380
  29                        15.41       6.22       0.00       7.83       7.55        0.18     3.41   0.349
  30                        15.41      18.24       0.00       9.01      16.19        0.15     2.88   0.481
  31                        15.41       0.00       0.00       7.12       4.79        0.17     3.57   0.311
  32                        15.41       0.00       0.00       7.15       4.58        0.23     4.90   0.297
  33                        15.41       0.00       0.00       6.97       5.71        0.05     1.07   0.371
  34                        15.41      10.30       0.00       8.42      10.01        0.21     3.95   0.389
  35                        15.41       0.00       0.00       7.11       4.88        0.15     3.12   0.317
  36                        15.41       9.43       0.00       8.42       8.07        0.48     9.00   0.325
  37                        15.41       0.00       0.00       7.14       4.65        0.21     4.38   0.302
  38                        15.41       0.00       0.00       7.11       4.90        0.14     3.03   0.318
  39                        15.41       0.00       0.00       7.12       4.81        0.16     3.45   0.312
  40                        15.41       2.55       0.00       7.51       5.73        0.22     4.53   0.319
  41                        15.41       0.00       0.00       7.07       5.16        0.10     2.12   0.335
  42                        15.41       0.00       0.00       7.09       5.05        0.12     2.44   0.328
  43                        15.41       0.00       0.00       6.84       6.41        0.02     0.51   0.416
  44                        15.41     134.37       0.00      13.64     111.96        0.41     7.99   0.748
  45                        15.41       0.00       0.00       7.00       5.59        0.06     1.24   0.363
  46                        15.41       7.92       0.00       8.11       8.68        0.19     3.55   0.372
  47                        15.41       0.00       0.00       7.01       5.53        0.06     1.32   0.359
  48                        15.41       3.88       0.00       7.59       7.11        0.11     2.25   0.369
  49                        15.41       0.00       0.00       7.08       5.09        0.11     2.32   0.330
  50                        15.41       6.17       0.00       7.89       8.12        0.14     2.81   0.376
  51                        15.41       5.10       0.00       7.79       7.39        0.16     3.12   0.360
  52                        15.41       0.00       0.00       7.08       5.09        0.11     2.32   0.330
  53                        15.41       2.70       0.00       7.44       6.45        0.11     2.31   0.356
  54                        15.41       0.00       0.00       6.97       5.75        0.05     1.03   0.373
  55                        15.41       5.80       0.00       7.71       8.85        0.07     1.46   0.418
  56                        15.41       8.72       0.00       8.19       9.05        0.19     3.67   0.375
  57                        15.41       0.00       0.00       7.15       4.59        0.23     4.80   0.298
  58                        15.41       0.00       0.00       7.00       5.58        0.06     1.25   0.362
  59                        15.41       0.00       0.00       6.97       5.74        0.05     1.04   0.372
  60                        15.41      12.62       0.00       8.31      13.84        0.07     1.40   0.494
  61                        15.41       0.00       0.00       7.22       3.94        0.71    14.35   0.256
  62                        15.41       0.00       0.00       7.22       3.91        0.74    15.03   0.254
  63                        15.41       0.00       0.00       6.99       5.63        0.05     1.17   0.366
  64                        15.41       0.00       0.00       7.02       5.48        0.07     1.41   0.356
  65                        15.41       0.00       0.00       7.06       5.23        0.09     1.93   0.339
  
  
  ****************************
  Subcatchment Washoff Summary
  ****************************
  
  ------------------------------------------------------------------------------------------
                                 COD         NH3-N            TN            TP            SS
  Subcatchment                    kg            kg            kg            kg            kg
  ------------------------------------------------------------------------------------------
  1                           23.186         0.000         0.000         0.000         0.000
  2                            0.000         0.000         0.000         0.000         0.000
  3                            0.000         0.000         0.000         0.000         0.000
  4                           20.289         0.000         0.000         0.000         0.000
  5                           56.645         0.000         0.000         0.000         0.000
  6                           32.990         0.000         0.000         0.000         0.000
  7                          814.126         0.000         0.000         0.000         0.000
  8                           29.256         0.000         0.000         0.000         0.000
  9                           54.124         0.000         0.000         0.000         0.000
  10                          56.808         0.000         0.000         0.000         0.000
  11                          16.111         0.000         0.000         0.000         0.000
  13                          43.713         0.000         0.000         0.000         0.000
  14                          47.786         0.000         0.000         0.000         0.000
  16                          44.059         0.000         0.000         0.000         0.000
  17                          26.118         0.000         0.000         0.000         0.000
  18                          29.797         0.000         0.000         0.000         0.000
  19                          19.509         0.000         0.000         0.000         0.000
  20                          42.378         0.000         0.000         0.000         0.000
  21                          57.796         0.000         0.000         0.000         0.000
  22                          49.256         0.000         0.000         0.000         0.000
  23                           7.226         0.000         0.000         0.000         0.000
  24                          17.429         0.000         0.000         0.000         0.000
  25                          10.503         0.000         0.000         0.000         0.000
  26                          16.238         0.000         0.000         0.000         0.000
  27                          15.921         0.000         0.000         0.000         0.000
  28                         109.342         0.000         0.000         0.000         0.000
  29                          50.762         0.000         0.000         0.000         0.000
  30                          47.900         0.000         0.000         0.000         0.000
  31                          25.445         0.000         0.000         0.000         0.000
  32                          33.932         0.000         0.000         0.000         0.000
  33                           8.533         0.000         0.000         0.000         0.000
  34                          59.830         0.000         0.000         0.000         0.000
  35                          22.468         0.000         0.000         0.000         0.000
  36                         132.621         0.000         0.000         0.000         0.000
  37                          30.657         0.000         0.000         0.000         0.000
  38                          21.885         0.000         0.000         0.000         0.000
  39                          24.654         0.000         0.000         0.000         0.000
  40                          42.417         0.000         0.000         0.000         0.000
  41                          15.857         0.000         0.000         0.000         0.000
  42                          17.985         0.000         0.000         0.000         0.000
  43                           4.357         0.000         0.000         0.000         0.000
  44                         122.674         0.000         0.000         0.000         0.000
  45                           9.714         0.000         0.000         0.000         0.000
  46                          51.861         0.000         0.000         0.000         0.000
  47                          10.289         0.000         0.000         0.000         0.000
  48                          25.333         0.000         0.000         0.000         0.000
  49                          17.180         0.000         0.000         0.000         0.000
  50                          36.054         0.000         0.000         0.000         0.000
  51                          37.056         0.000         0.000         0.000         0.000
  52                          17.180         0.000         0.000         0.000         0.000
  53                          23.443         0.000         0.000         0.000         0.000
  54                           8.231         0.000         0.000         0.000         0.000
  55                          19.434         0.000         0.000         0.000         0.000
  56                          56.608         0.000         0.000         0.000         0.000
  57                          33.305         0.000         0.000         0.000         0.000
  58                           9.786         0.000         0.000         0.000         0.000
  59                           8.307         0.000         0.000         0.000         0.000
  60                          22.948         0.000         0.000         0.000         0.000
  61                          90.337         0.000         0.000         0.000         0.000
  62                          94.139         0.000         0.000         0.000         0.000
  63                           9.276         0.000         0.000         0.000         0.000
  64                          10.928         0.000         0.000         0.000         0.000
  65                          14.505         0.000         0.000         0.000         0.000
  ------------------------------------------------------------------------------------------
  System                    2908.498         0.000         0.000         0.000         0.000
  
  
  ******************
  Node Depth Summary
  ******************
  
  ---------------------------------------------------------------------------------
                                 Average  Maximum  Maximum  Time of Max    Reported
                                   Depth    Depth      HGL   Occurrence   Max Depth
  Node                 Type       Meters   Meters   Meters  days hr:min      Meters
  ---------------------------------------------------------------------------------
  WS01000070           JUNCTION     0.00     0.00     0.00     0  00:00        0.00
  WS01000323           JUNCTION     0.00     0.00     0.00     0  00:00        0.00
  WS01000533           JUNCTION     0.00     0.00     6.86     0  00:00        0.00
  WS01005172           JUNCTION     0.00     0.00     0.00     0  00:00        0.00
  WS01005181           JUNCTION     0.00     0.00     0.00     0  00:00        0.00
  WS01009841           JUNCTION     0.00     0.00     0.00     0  00:00        0.00
  WS02000078           JUNCTION     0.00     0.00     0.00     0  00:00        0.00
  WS02000112           JUNCTION     0.00     0.00     0.00     0  00:00        0.00
  WS02000136           JUNCTION     0.00     0.00     0.00     0  00:00        0.00
  WS02001211           JUNCTION     0.46     0.56     5.40     0  03:00        0.55
  WS02001212           JUNCTION     0.41     0.57     5.37     0  02:59        0.55
  WS02001213           JUNCTION     0.52     0.67     5.37     0  02:59        0.66
  WS02003059           JUNCTION     0.51     0.72     5.37     0  02:58        0.69
  WS02003060           JUNCTION     0.59     0.79     5.34     0  02:57        0.78
  WS02003066           JUNCTION     0.25     0.37     5.67     0  02:54        0.35
  WS02003067           JUNCTION     0.42     0.63     5.95     0  02:54        0.62
  WS02003071           JUNCTION     0.66     0.88     5.28     0  02:56        0.88
  WS02003072           JUNCTION     0.58     0.83     5.20     0  02:56        0.82
  WS02003073           JUNCTION     0.69     1.01     5.25     0  02:55        0.96
  WS02003076           JUNCTION     0.62     0.89     5.12     0  03:20        0.82
  WS02003077           JUNCTION     0.17     0.24     5.25     0  03:01        0.24
  WS02003078           JUNCTION     0.05     0.08     6.98     0  02:53        0.07
  WS02003079           JUNCTION     0.15     0.23     7.14     0  02:53        0.23
  WS02003080           JUNCTION     0.29     0.41     5.44     0  03:01        0.41
  WS02003081           JUNCTION     0.37     0.54     5.58     0  03:01        0.54
  WS02003082           JUNCTION     0.38     0.59     5.67     0  03:01        0.59
  WS02003083           JUNCTION     0.43     0.68     5.77     0  03:00        0.68
  WS02003084           JUNCTION     0.45     0.73     5.83     0  03:01        0.73
  WS02003085           JUNCTION     0.39     0.71     5.88     0  03:00        0.71
  WS02003086           JUNCTION     0.42     0.77     5.97     0  03:00        0.76
  WS02003087           JUNCTION     0.44     0.84     6.06     0  03:00        0.83
  WS02003088           JUNCTION     0.41     0.85     6.14     0  03:01        0.84
  WS02003089           JUNCTION     0.32     0.76     6.22     0  03:00        0.75
  WS02003090           JUNCTION     0.37     1.06     6.53     0  03:12        0.80
  WS02003091           JUNCTION     0.21     0.49     6.29     0  03:00        0.49
  WS02003092           JUNCTION     0.01     0.01     7.65     0  01:24        0.01
  WS02003093           JUNCTION     0.03     0.07     7.41     0  02:50        0.07
  WS02003094           JUNCTION     0.14     0.19     7.41     0  02:51        0.19
  WS02003098           JUNCTION     0.09     0.13     7.30     0  02:52        0.13
  WS02003099           JUNCTION     0.17     0.25     7.29     0  02:52        0.25
  WS02003102           JUNCTION     0.16     0.24     7.27     0  02:51        0.24
  WS02003103           JUNCTION     0.18     0.26     7.23     0  02:52        0.26
  WS02003104           JUNCTION     0.17     0.26     7.22     0  02:52        0.26
  WS02003106           JUNCTION     0.17     0.25     7.18     0  02:53        0.25
  WS02003110           JUNCTION     0.18     0.30     7.55     0  02:57        0.29
  WS02003111           JUNCTION     0.18     0.41     7.50     0  02:57        0.41
  WS02003115           JUNCTION     0.25     0.72     7.62     0  02:58        0.68
  WS02003116           JUNCTION     0.31     0.92     7.63     0  02:58        0.80
  WS02003118           JUNCTION     0.29     0.92     7.54     0  03:01        0.71
  WS02003122           JUNCTION     0.43     0.94     7.31     0  03:01        0.89
  WS02003123           JUNCTION     0.36     0.85     7.29     0  02:58        0.81
  WS02003126           JUNCTION     0.28     0.74     7.26     0  02:57        0.74
  WS02003187           JUNCTION     0.44     0.93     7.26     0  03:00        0.89
  WS02003188           JUNCTION     0.49     0.93     7.19     0  02:58        0.89
  WS02003190           JUNCTION     0.47     0.88     7.13     0  02:58        0.85
  WS02003193           JUNCTION     0.45     0.81     7.05     0  02:57        0.79
  WS02003195           JUNCTION     0.43     0.72     6.94     0  02:57        0.72
  WS02003196           JUNCTION     0.43     0.68     6.86     0  02:57        0.68
  WS02003198           JUNCTION     0.41     0.62     6.79     0  02:57        0.62
  WS02003200           JUNCTION     0.28     0.42     6.58     0  02:56        0.42
  WS02003201           JUNCTION     0.27     0.41     6.55     0  02:56        0.41
  WS02003202           JUNCTION     0.28     0.42     6.48     0  02:56        0.42
  WS02003203           JUNCTION     0.19     0.33     6.33     0  02:58        0.33
  WS02003215           JUNCTION     0.24     0.81     7.67     0  02:57        0.70
  WS02004050           JUNCTION     0.42     0.57     4.79     0  02:57        0.57
  WS02004053           JUNCTION     0.00     0.00     0.00     0  00:00        0.00
  WS02004136           JUNCTION     0.18     0.18     6.91     0  01:39        0.18
  WS02004139           JUNCTION     0.37     0.45     5.41     0  03:01        0.44
  WS02004401           JUNCTION     0.45     0.67     6.67     0  03:02        0.67
  WS02004402           JUNCTION     0.46     0.69     6.65     0  03:02        0.69
  WS02004403           JUNCTION     0.45     0.68     6.61     0  03:02        0.68
  WS02004404           JUNCTION     0.54     0.76     6.61     0  03:02        0.76
  WS02004405           JUNCTION     0.54     0.76     6.60     0  03:02        0.76
  WS02004406           JUNCTION     0.51     0.73     6.56     0  03:01        0.73
  WS02004407           JUNCTION     0.48     0.68     6.48     0  03:01        0.68
  WS02004409           JUNCTION     0.47     0.66     6.43     0  03:01        0.66
  WS02004410           JUNCTION     0.45     0.63     6.35     0  03:02        0.63
  WS02004411           JUNCTION     0.41     0.58     6.26     0  03:01        0.58
  WS02004412           JUNCTION     0.36     0.51     6.15     0  03:02        0.51
  WS02004413           JUNCTION     0.37     0.54     6.01     0  02:55        0.54
  WS02004997           JUNCTION     5.64     6.54     8.15     0  03:00        6.53
  WS02005122           JUNCTION     0.10     0.15     9.67     0  02:49        0.15
  WS02005123           JUNCTION     0.09     0.13     9.59     0  02:49        0.13
  WS02005124           JUNCTION     0.08     0.12     9.39     0  02:49        0.12
  WS02005126           JUNCTION     0.14     0.20     9.30     0  02:50        0.20
  WS02005127           JUNCTION     0.13     0.18     9.21     0  02:50        0.18
  WS02005129           JUNCTION     0.13     0.19     9.12     0  02:49        0.19
  WS02005131           JUNCTION     0.14     0.22     8.98     0  02:49        0.22
  WS02005132           JUNCTION     0.19     0.27     8.91     0  02:50        0.27
  WS02005133           JUNCTION     0.17     0.26     8.87     0  02:50        0.26
  WS02005135           JUNCTION     0.16     0.25     8.81     0  02:49        0.25
  WS02005137           JUNCTION     0.20     0.31     8.73     0  02:50        0.31
  WS02005138           JUNCTION     0.21     0.30     8.65     0  02:50        0.30
  WS02005140           JUNCTION     0.16     0.25     8.57     0  02:51        0.25
  WS02005142           JUNCTION     0.21     0.32     8.48     0  02:50        0.32
  WS02005144           JUNCTION     0.20     0.31     8.36     0  02:50        0.31
  WS02005145           JUNCTION     0.24     0.36     8.26     0  02:53        0.36
  WS02005147           JUNCTION     0.19     0.29     8.16     0  02:53        0.29
  WS02005152           JUNCTION     0.21     0.32     8.04     0  02:53        0.32
  WS02005154           JUNCTION     0.16     0.24     7.88     0  02:54        0.24
  WS02005155           JUNCTION     0.22     0.34     7.65     0  02:53        0.34
  WS02005162           JUNCTION     0.17     0.30     8.30     0  03:03        0.30
  WS02005163           JUNCTION     0.17     0.27     8.31     0  03:03        0.27
  WS02005164           JUNCTION     0.16     0.25     8.33     0  03:03        0.25
  WS02005165           JUNCTION     0.12     0.17     8.35     0  02:50        0.17
  WS02005166           JUNCTION     0.12     0.17     8.44     0  02:49        0.17
  WS02005167           JUNCTION     0.15     0.21     8.51     0  02:49        0.21
  WS02005170           JUNCTION     0.11     0.15     8.55     0  02:49        0.15
  WS02005171           JUNCTION     0.11     0.16     8.63     0  02:49        0.16
  WS02005175           JUNCTION     0.11     0.16     8.73     0  02:48        0.16
  WS02005176           JUNCTION     0.10     0.14     8.76     0  02:49        0.14
  WS02005180           JUNCTION     0.12     0.16     8.81     0  02:49        0.16
  WS02005181           JUNCTION     0.10     0.14     8.84     0  02:48        0.14
  WS02005183           JUNCTION     0.07     0.10     8.96     0  02:48        0.10
  WS02005184           JUNCTION     0.08     0.12     9.03     0  02:47        0.12
  WS02005185           JUNCTION     0.07     0.10     9.12     0  02:47        0.10
  WS02005186           JUNCTION     0.07     0.11     9.22     0  02:47        0.11
  WS02005188           JUNCTION     0.20     0.36     8.30     0  03:03        0.36
  WS02005191           JUNCTION     0.24     0.40     8.30     0  03:03        0.40
  WS02005192           JUNCTION     0.25     0.42     8.29     0  03:03        0.42
  WS02005193           JUNCTION     0.26     0.46     8.28     0  03:04        0.46
  WS02005196           JUNCTION     0.26     0.44     8.29     0  03:04        0.43
  WS02006109           JUNCTION     0.52     0.78     7.40     0  03:01        0.78
  WS02006110           JUNCTION     0.49     0.72     7.32     0  03:00        0.72
  WS02006111           JUNCTION     0.26     0.44     7.02     0  03:00        0.43
  WS02006112           JUNCTION     0.47     0.70     6.82     0  03:00        0.70
  WS02006113           JUNCTION     0.42     0.65     7.24     0  03:00        0.65
  WS02006115           JUNCTION     0.43     0.65     6.75     0  03:02        0.65
  WS02006116           JUNCTION     0.46     0.68     6.72     0  03:02        0.68
  WS02006183           JUNCTION     0.00     0.00     0.00     0  00:00        0.00
  WS02006228           JUNCTION     0.54     0.82     7.47     0  03:01        0.82
  WS02006229           JUNCTION     0.51     0.81     7.50     0  03:01        0.81
  WS02006230           JUNCTION     0.51     0.86     7.61     0  03:00        0.86
  WS02006231           JUNCTION     0.42     0.81     7.71     0  03:01        0.81
  WS02006232           JUNCTION     0.39     0.78     7.81     0  03:01        0.77
  WS02006234           JUNCTION     0.37     0.74     7.90     0  03:01        0.74
  WS02006235           JUNCTION     0.43     0.79     7.96     0  03:01        0.79
  WS02006238           JUNCTION     0.44     0.80     7.98     0  03:01        0.80
  WS02006239           JUNCTION     0.44     0.82     8.03     0  03:01        0.81
  WS02006242           JUNCTION     0.43     0.80     8.10     0  03:01        0.80
  WS02006240           JUNCTION     0.39     0.77     8.06     0  03:01        0.76
  WS02006243           JUNCTION     0.35     0.73     8.15     0  03:02        0.72
  WS02006245           JUNCTION     0.35     0.69     8.18     0  03:03        0.69
  WS02006247           JUNCTION     0.37     0.71     8.22     0  03:02        0.69
  WS02006248           JUNCTION     0.32     0.64     8.23     0  03:02        0.63
  WS02006249           JUNCTION     0.34     0.64     8.24     0  03:03        0.64
  WS02006251           JUNCTION     0.33     0.60     8.27     0  03:03        0.60
  WS02006253           JUNCTION     0.24     0.47     8.27     0  03:03        0.47
  WS02618401           JUNCTION     0.00     0.00     0.00     0  00:00        0.00
  WS8802               JUNCTION     0.00     0.00     4.38     0  00:00        0.00
  WSA1649              JUNCTION     0.00     0.00     0.00     0  00:00        0.00
  WSF200               JUNCTION     0.24     0.37     5.47     0  02:55        0.36
  XR-Inflow            JUNCTION     5.57     6.55     8.36     0  02:45        6.55
  WS02004114           JUNCTION     5.56     6.40     8.00     0  03:01        6.39
  outfall-24           OUTFALL      0.13     0.18     5.68     0  02:59        0.18
  outfall-2            OUTFALL      0.00     0.00     7.00     0  00:00        0.00
  outfall-5            OUTFALL      0.00     0.03     7.70     0  03:02        0.03
  outfall-8            OUTFALL      0.00     0.00     8.00     0  00:00        0.00
  outfall-14           OUTFALL      0.00     0.00     7.66     0  00:00        0.00
  outfall-16           OUTFALL      0.00     0.00     8.39     0  00:00        0.00
  outfall-17           OUTFALL      0.00     0.00     8.15     0  00:00        0.00
  outfall-27           OUTFALL      0.00     0.00     7.90     0  00:00        0.00
  outfall-28           OUTFALL      0.00     0.00     7.30     0  00:00        0.00
  67                   OUTFALL      0.00     0.00    10.20     0  00:00        0.00
  12                   OUTFALL      0.42     0.56     0.56     0  02:58        0.56
  XR-storage           STORAGE      6.60     7.41     7.91     0  02:59        7.41
  CC-storage           STORAGE      1.96     3.02     6.20     0  02:03        3.02
  JK-storage           STORAGE      1.93     3.02     6.02     0  01:31        3.02
  
  
  *******************
  Node Inflow Summary
  *******************
  
  -------------------------------------------------------------------------------------------------
                                  Maximum  Maximum                  Lateral       Total        Flow
                                  Lateral    Total  Time of Max      Inflow      Inflow     Balance
                                   Inflow   Inflow   Occurrence      Volume      Volume       Error
  Node                 Type           MLD      MLD  days hr:min    10^6 ltr    10^6 ltr     Percent
  -------------------------------------------------------------------------------------------------
  WS01000070           JUNCTION      0.00     0.00     0  00:00           0           0       0.000 ltr
  WS01000323           JUNCTION      0.00     0.00     0  00:00           0           0       0.000 ltr
  WS01000533           JUNCTION      0.00     0.00     0  00:00           0           0       0.000 ltr
  WS01005172           JUNCTION      0.00     0.00     0  00:00           0           0       0.000 ltr
  WS01005181           JUNCTION      0.00     0.00     0  00:00           0           0       0.000 ltr
  WS01009841           JUNCTION      0.00     0.00     0  00:00           0           0       0.000 ltr
  WS02000078           JUNCTION      0.00     0.00     0  00:00           0           0       0.000 ltr
  WS02000112           JUNCTION      0.00     0.00     0  00:00           0           0       0.000 ltr
  WS02000136           JUNCTION      0.00     0.00     0  00:00           0           0       0.000 ltr
  WS02001211           JUNCTION      0.25    36.47     0  03:02      0.0407        4.88       0.530
  WS02001212           JUNCTION      0.21    38.45     0  03:26      0.0346        4.89       0.304
  WS02001213           JUNCTION      0.30    41.63     0  03:25      0.0489        4.92       0.422
  WS02003059           JUNCTION      0.23    39.24     0  03:27      0.0378        4.94       0.557
  WS02003060           JUNCTION      0.16   124.02     0  03:00      0.0252        9.96       0.435
  WS02003066           JUNCTION      0.08   101.00     0  02:55      0.0122        5.02       0.174
  WS02003067           JUNCTION      0.26    83.41     0  03:02      0.0395        5.01       0.154
  WS02003071           JUNCTION      0.35   122.90     0  03:01      0.0538        9.97       0.490
  WS02003072           JUNCTION      0.24   122.29     0  02:59      0.0382        9.96       0.297
  WS02003073           JUNCTION      0.07   168.30     0  02:57     0.00978        12.2       0.275
  WS02003076           JUNCTION      0.72   193.45     0  02:56        0.12        12.3       0.193
  WS02003077           JUNCTION      0.04    40.96     0  03:01      0.0059        2.23       0.140
  WS02003078           JUNCTION      0.03    10.85     0  02:53     0.00419       0.493      -0.013
  WS02003079           JUNCTION      0.04     9.31     0  02:53     0.00561        0.49       0.241
  WS02003080           JUNCTION      0.08    31.65     0  03:01      0.0113        1.73       0.315
  WS02003081           JUNCTION      0.03    31.59     0  03:01     0.00406        1.73       0.411
  WS02003082           JUNCTION      0.05    31.58     0  03:01     0.00692        1.73       0.418
  WS02003083           JUNCTION      0.02    31.54     0  03:01      0.0027        1.73       0.419
  WS02003084           JUNCTION      0.06    31.52     0  03:00     0.00885        1.74       0.288
  WS02003085           JUNCTION      0.02    31.48     0  03:00     0.00307        1.73       0.262
  WS02003086           JUNCTION      0.04    31.46     0  03:00     0.00599        1.73       0.347
  WS02003087           JUNCTION      0.06    31.43     0  03:00     0.00824        1.74       0.368
  WS02003088           JUNCTION      0.07    31.39     0  03:00      0.0105        1.73       0.316
  WS02003089           JUNCTION      0.08    31.34     0  03:00      0.0113        1.73       0.186
  WS02003090           JUNCTION      0.04    31.28     0  03:00     0.00647        1.72       0.176
  WS02003091           JUNCTION      0.01    32.94     0  02:56     0.00171        1.71       0.076
  WS02003092           JUNCTION      0.07     0.07     0  01:00     0.00989     0.00989       0.382
  WS02003093           JUNCTION      0.02     0.10     0  02:38     0.00306       0.013       1.000
  WS02003094           JUNCTION      4.98     5.06     0  02:50       0.259       0.272       0.976
  WS02003098           JUNCTION      0.02     5.07     0  02:51     0.00293       0.272       0.588
  WS02003099           JUNCTION      0.07     5.13     0  02:52      0.0109       0.281       1.214
  WS02003102           JUNCTION      4.19     9.22     0  02:50       0.203       0.481       0.583
  WS02003103           JUNCTION      0.02     9.23     0  02:51     0.00239        0.48       0.427
  WS02003104           JUNCTION      0.02     9.24     0  02:52     0.00302       0.481       0.360
  WS02003106           JUNCTION      0.05     9.28     0  02:52     0.00727       0.487       0.436
  WS02003110           JUNCTION      0.06    22.87     0  02:53     0.00906        1.13       0.098
  WS02003111           JUNCTION      0.02    21.56     0  02:55      0.0029        1.14       0.097
  WS02003115           JUNCTION      0.95    24.21     0  03:01      0.0521        1.19       0.091
  WS02003116           JUNCTION      0.08    22.27     0  03:03      0.0118        1.21       0.203
  WS02003118           JUNCTION      2.41    24.24     0  02:58        0.12        1.32       0.240
  WS02003122           JUNCTION      0.07    24.41     0  02:58      0.0101        1.35       0.448
  WS02003123           JUNCTION      0.06     0.67     0  03:04      0.0093      0.0243       5.659
  WS02003126           JUNCTION      0.03     0.52     0  03:03     0.00529     0.00849       6.385
  WS02003187           JUNCTION      0.06    24.25     0  02:58     0.00906        1.35       0.415
  WS02003188           JUNCTION      1.76    25.96     0  02:58       0.109        1.45       0.543
  WS02003190           JUNCTION      0.06    26.01     0  02:58     0.00956        1.45       0.512
  WS02003193           JUNCTION      2.18    27.97     0  02:58       0.105        1.55       0.507
  WS02003195           JUNCTION      0.03    28.01     0  02:58      0.0053        1.55       0.516
  WS02003196           JUNCTION      0.02    27.99     0  02:58     0.00301        1.54       0.511
  WS02003198           JUNCTION      3.18    31.17     0  02:58       0.176        1.71       0.576
  WS02003200           JUNCTION      0.07    31.24     0  02:58      0.0107        1.71       0.276
  WS02003201           JUNCTION      0.01    31.98     0  02:56     0.00183        1.71       0.107
  WS02003202           JUNCTION      0.02    31.83     0  02:56      0.0031        1.71       0.230
  WS02003203           JUNCTION      0.05    32.71     0  02:54     0.00692        1.71       0.060
  WS02003215           JUNCTION      0.06    23.53     0  03:02     0.00945        1.19       0.075
  WS02004050           JUNCTION      0.72   194.25     0  02:55       0.119        12.4       0.547
  WS02004053           JUNCTION      0.00     0.00     0  00:00           0           0       0.000 ltr
  WS02004136           JUNCTION      0.44    32.92     0  01:31      0.0703        4.79       0.062
  WS02004139           JUNCTION      0.38    33.43     0  01:39      0.0619        4.85       0.365
  WS02004401           JUNCTION      0.05    66.43     0  03:01     0.00897        3.99       0.290
  WS02004402           JUNCTION      0.22    66.58     0  03:02      0.0335        4.02       0.269
  WS02004403           JUNCTION      0.23    66.80     0  03:03      0.0349        4.04       0.235
  WS02004404           JUNCTION      0.24    67.05     0  03:03      0.0365        4.07       0.205
  WS02004405           JUNCTION      2.85    69.31     0  03:02       0.143         4.2       0.294
  WS02004406           JUNCTION      5.62    74.78     0  03:01       0.322        4.51       0.417
  WS02004407           JUNCTION      0.11    74.87     0  03:01      0.0171        4.51       0.368
  WS02004409           JUNCTION      3.79    78.58     0  03:01       0.224        4.72       0.308
  WS02004410           JUNCTION      0.15    78.69     0  03:02      0.0226        4.73       0.306
  WS02004411           JUNCTION      0.25    78.96     0  03:02      0.0379        4.75       0.269
  WS02004412           JUNCTION      4.83    83.04     0  03:02       0.242        4.98       0.215
  WS02004413           JUNCTION      0.11    83.14     0  03:02      0.0172        4.98       0.202
  WS02004997           JUNCTION      0.42   114.41     0  03:00      0.0693        9.53       0.450
  WS02005122           JUNCTION      3.17     3.17     0  02:49       0.167       0.167       0.143
  WS02005123           JUNCTION      0.06     3.23     0  02:49     0.00977       0.177       0.201
  WS02005124           JUNCTION      0.04     3.27     0  02:49     0.00611       0.182       0.296
  WS02005126           JUNCTION      2.87     6.13     0  02:49       0.153       0.335       0.382
  WS02005127           JUNCTION      0.05     6.18     0  02:50     0.00848       0.342       0.330
  WS02005129           JUNCTION      3.06     9.21     0  02:48       0.149        0.49       0.241
  WS02005131           JUNCTION      0.04     9.25     0  02:49     0.00682       0.496       0.323
  WS02005132           JUNCTION      0.05     9.29     0  02:49     0.00808       0.503       0.436
  WS02005133           JUNCTION      0.06     9.35     0  02:50        0.01        0.51       0.366
  WS02005135           JUNCTION      4.44    13.74     0  02:49       0.219       0.728       0.217
  WS02005137           JUNCTION      0.04    13.78     0  02:49     0.00625       0.732       0.328
  WS02005138           JUNCTION      0.06    13.84     0  02:50      0.0101        0.74       0.364
  WS02005140           JUNCTION      0.06    13.90     0  02:50        0.01       0.747       0.232
  WS02005142           JUNCTION      4.94    18.78     0  02:50       0.242       0.988       0.244
  WS02005144           JUNCTION      0.06    18.83     0  02:50     0.00927       0.995       0.238
  WS02005145           JUNCTION      0.04    18.87     0  02:51     0.00618       0.998       0.310
  WS02005147           JUNCTION      0.05    18.92     0  02:51     0.00749           1       0.211
  WS02005152           JUNCTION      0.06    18.99     0  02:51     0.00981        1.01       0.248
  WS02005154           JUNCTION      2.19    22.44     0  02:53        0.11        1.12       0.122
  WS02005155           JUNCTION      0.06    21.67     0  02:53        0.01        1.13       0.182
  WS02005162           JUNCTION      0.08     7.56     0  02:51      0.0127       0.485       0.324
  WS02005163           JUNCTION      0.13     7.50     0  02:50        0.02       0.474       0.329
  WS02005164           JUNCTION      1.29     7.40     0  02:49      0.0654       0.455       0.329
  WS02005165           JUNCTION      0.11     6.15     0  02:50      0.0168       0.391       0.289
  WS02005166           JUNCTION      0.11     6.06     0  02:49      0.0167       0.376       0.307
  WS02005167           JUNCTION      1.23     5.96     0  02:48      0.0639        0.36       0.426
  WS02005170           JUNCTION      0.09     4.77     0  02:49       0.013       0.297       0.332
  WS02005171           JUNCTION      0.02     4.69     0  02:48     0.00326       0.285       0.348
  WS02005175           JUNCTION      1.94     4.67     0  02:48      0.0932       0.283       0.287
  WS02005176           JUNCTION      0.08     2.76     0  02:49      0.0123       0.191       0.422
  WS02005180           JUNCTION      0.11     2.69     0  02:48      0.0172       0.179       0.579
  WS02005181           JUNCTION      0.13     2.60     0  02:48      0.0203       0.163       0.449
  WS02005183           JUNCTION      0.03     2.48     0  02:47     0.00433       0.143       0.261
  WS02005184           JUNCTION      0.09     2.46     0  02:47       0.013       0.139       0.280
  WS02005185           JUNCTION      0.07     2.38     0  02:47      0.0111       0.126       0.210
  WS02005186           JUNCTION      2.32     2.32     0  02:47       0.115       0.115       0.133
  WS02005188           JUNCTION      0.03     7.59     0  02:51     0.00497       0.489       0.242
  WS02005191           JUNCTION      0.06     7.76     0  02:50     0.00844       0.497       0.329
  WS02005192           JUNCTION      4.90    12.47     0  02:50       0.247       0.744       0.262
  WS02005193           JUNCTION      0.09    13.15     0  03:13      0.0146        0.78       0.219
  WS02005196           JUNCTION      0.12    12.51     0  02:50       0.019       0.763       0.249
  WS02006109           JUNCTION      0.08    61.27     0  03:01      0.0135        3.67       0.333
  WS02006110           JUNCTION      0.08    61.61     0  03:01      0.0132        3.67       0.322
  WS02006111           JUNCTION      0.24    78.79     0  03:01      0.0366        3.95       0.035
  WS02006112           JUNCTION      0.18    70.45     0  03:00      0.0273        3.97       0.283
  WS02006113           JUNCTION      5.03    67.56     0  03:00        0.26        3.92       0.327
  WS02006115           JUNCTION      0.08    66.77     0  03:01      0.0134        3.97       0.307
  WS02006116           JUNCTION      0.24    66.47     0  03:01       0.036           4       0.304
  WS02006183           JUNCTION      0.00     0.00     0  00:00           0           0       0.000 ltr
  WS02006228           JUNCTION      8.14    61.17     0  03:00       0.442        3.67       0.246
  WS02006229           JUNCTION      0.13    53.13     0  02:59        0.02        3.23       0.226
  WS02006230           JUNCTION      0.07    52.96     0  02:58      0.0116        3.22       0.223
  WS02006231           JUNCTION      0.13    52.89     0  02:58      0.0205        3.21       0.111
  WS02006232           JUNCTION      3.50    52.76     0  02:58       0.176         3.2       0.112
  WS02006234           JUNCTION      0.14    50.23     0  03:08      0.0216        3.02       0.116
  WS02006235           JUNCTION      0.14    53.24     0  02:47      0.0223           3       0.057
  WS02006238           JUNCTION      0.15    50.00     0  03:08      0.0235        2.99       0.120
  WS02006239           JUNCTION      0.11    41.37     0  03:11      0.0174         2.1       0.231
  WS02006242           JUNCTION      0.08    39.48     0  03:12      0.0129        2.08       0.273
  WS02006240           JUNCTION      0.06    40.26     0  03:11     0.00992        2.09       0.192
  WS02006243           JUNCTION      0.17    37.76     0  03:12      0.0269        2.07       0.162
  WS02006245           JUNCTION      0.07    36.42     0  03:11      0.0113        2.05       0.131
  WS02006247           JUNCTION      3.16    35.61     0  03:11        0.19        2.04       0.143
  WS02006248           JUNCTION      0.12    32.22     0  03:12      0.0192        1.86       0.082
  WS02006249           JUNCTION      0.19    31.30     0  02:50      0.0286        1.84       0.165
  WS02006251           JUNCTION      1.52    31.32     0  02:50      0.0832        1.82       0.139
  WS02006253           JUNCTION      0.11    29.87     0  02:51      0.0173        1.74       0.040
  WS02618401           JUNCTION      0.00     0.00     0  00:00           0           0       0.000 ltr
  WS8802               JUNCTION      0.00     0.00     0  00:00           0           0       0.000 ltr
  WSA1649              JUNCTION      0.00     0.00     0  00:00           0           0       0.000 ltr
  WSF200               JUNCTION      0.14    91.37     0  02:55      0.0216        5.03       0.068
  XR-Inflow            JUNCTION    132.50   132.50     0  03:00        9.68        9.68       0.238
  WS02004114           JUNCTION      0.57   114.93     0  03:00      0.0916        9.58       0.244
  outfall-24           OUTFALL       0.00    82.44     0  02:59           0        4.73       0.000
  outfall-2            OUTFALL       0.00     0.00     0  00:00           0           0       0.000 ltr
  outfall-5            OUTFALL       0.00     1.20     0  03:02           0     0.00525       0.000
  outfall-8            OUTFALL       0.00     0.00     0  00:00           0           0       0.000 ltr
  outfall-14           OUTFALL       0.00     0.00     0  00:00           0           0       0.000 ltr
  outfall-16           OUTFALL       0.00     0.00     0  00:00           0           0       0.000 ltr
  outfall-17           OUTFALL       0.00     0.00     0  00:00           0           0       0.000 ltr
  outfall-27           OUTFALL       0.00     0.00     0  00:00           0           0       0.000 ltr
  outfall-28           OUTFALL       0.00     0.00     0  00:00           0           0       0.000 ltr
  67                   OUTFALL       0.00     0.00     0  00:00           0           0       0.000 ltr
  12                   OUTFALL       0.00   166.91     0  02:58           0        12.3       0.000
  XR-storage           STORAGE       0.00   114.94     0  03:00           0        9.55       0.458
  CC-storage           STORAGE      15.97    15.97     0  02:50       0.995       0.995       0.001
  JK-storage           STORAGE      16.02    16.02     0  02:50       0.919       0.919       0.001
  
  
  **********************
  Node Surcharge Summary
  **********************
  
  Surcharging occurs when water rises above the top of the highest conduit.
  ---------------------------------------------------------------------
                                               Max. Height   Min. Depth
                                   Hours       Above Crown    Below Rim
  Node                 Type      Surcharged         Meters       Meters
  ---------------------------------------------------------------------
  WS01000070           JUNCTION        4.00          0.000        0.000
  WS01000323           JUNCTION        4.00          0.000        0.000
  WS01000533           JUNCTION        4.00          0.000        2.147
  WS01005172           JUNCTION        4.00          0.000        0.000
  WS01005181           JUNCTION        4.00          0.000        0.000
  WS01009841           JUNCTION        4.00          0.000        0.000
  WS02000078           JUNCTION        4.00          0.000        0.000
  WS02000112           JUNCTION        4.00          0.000        0.000
  WS02000136           JUNCTION        4.00          0.000        0.000
  WS02003083           JUNCTION        0.33          0.078        3.395
  WS02003084           JUNCTION        0.46          0.133        4.446
  WS02003085           JUNCTION        0.34          0.111        3.631
  WS02003086           JUNCTION        0.40          0.174        3.599
  WS02003087           JUNCTION        0.47          0.236        3.469
  WS02003088           JUNCTION        0.44          0.252        3.288
  WS02003089           JUNCTION        0.31          0.165        3.578
  WS02003090           JUNCTION        0.33          0.464        3.369
  WS02003115           JUNCTION        0.02          0.125        1.999
  WS02003116           JUNCTION        0.30          0.324        2.107
  WS02003118           JUNCTION        0.28          0.322        2.242
  WS02003122           JUNCTION        0.49          0.342        2.339
  WS02003123           JUNCTION        0.53          0.354        2.031
  WS02003187           JUNCTION        0.52          0.334        2.176
  WS02003188           JUNCTION        0.58          0.334        2.034
  WS02003190           JUNCTION        0.53          0.277        1.939
  WS02003193           JUNCTION        0.48          0.209        2.040
  WS02003196           JUNCTION        0.37          0.078        2.632
  WS02003198           JUNCTION        0.19          0.019        3.265
  WS02003215           JUNCTION        0.09          0.213        1.989
  WS02004053           JUNCTION        4.00          0.000        0.000
  WS02004997           JUNCTION        2.09          5.643        0.357
  WS02006183           JUNCTION        4.00          0.000        0.000
  WS02006228           JUNCTION        0.24          0.018        2.213
  WS02006229           JUNCTION        0.13          0.010        2.444
  WS02006231           JUNCTION        0.37          0.113        1.430
  WS02006232           JUNCTION        0.32          0.076        1.413
  WS02006234           JUNCTION        0.25          0.038        1.219
  WS02006235           JUNCTION        0.31          0.092        1.202
  WS02006238           JUNCTION        0.31          0.102        1.332
  WS02006239           JUNCTION        0.33          0.116        1.213
  WS02006242           JUNCTION        0.31          0.101        0.748
  WS02006240           JUNCTION        0.28          0.073        1.330
  WS02006243           JUNCTION        0.22          0.026        0.754
  WS02006247           JUNCTION        0.01          0.009        0.751
  WS02618401           JUNCTION        4.00          0.000        0.000
  WS8802               JUNCTION        4.00          0.000        4.942
  WSA1649              JUNCTION        4.00          0.000        0.000
  XR-Inflow            JUNCTION        2.07          5.650        0.000
  WS02004114           JUNCTION        2.09          5.503        1.012
  
  
  *********************
  Node Flooding Summary
  *********************
  
  Flooding refers to all water that overflows a node, whether it ponds or not.
  --------------------------------------------------------------------------
                                                             Total   Maximum
                                 Maximum   Time of Max       Flood    Ponded
                        Hours       Rate    Occurrence      Volume     Depth
  Node                 Flooded       MLD   days hr:min    10^6 ltr    Meters
  --------------------------------------------------------------------------
  XR-Inflow               0.51     18.53      0  03:00       0.203     0.000
  
  
  **********************
  Storage Volume Summary
  **********************
  
  --------------------------------------------------------------------------------------------------
                         Average     Avg  Evap Exfil       Maximum     Max    Time of Max    Maximum
                          Volume    Pcnt  Pcnt  Pcnt        Volume    Pcnt     Occurrence    Outflow
  Storage Unit           1000 m3    Full  Loss  Loss       1000 m3    Full    days hr:min        MLD
  --------------------------------------------------------------------------------------------------
  XR-storage               0.054      86     0     0         0.060      96       0  02:59     114.92
  CC-storage               0.055      35     0     0         0.085      54       0  02:03      17.28
  JK-storage               0.055      40     0     0         0.085      63       0  01:31      17.28
  
  
  ***********************
  Outfall Loading Summary
  ***********************
  
  ---------------------------------------------------------------------------------------------------------------------------------
                         Flow       Avg       Max       Total         Total         Total         Total         Total         Total
                         Freq      Flow      Flow      Volume           COD         NH3-N            TN            TP            SS
  Outfall Node           Pcnt       MLD       MLD    10^6 ltr            kg            kg            kg            kg            kg
  ---------------------------------------------------------------------------------------------------------------------------------
  outfall-24            85.52     61.37     82.44       4.725       674.700         0.000         0.000         0.000         0.000
  outfall-2              0.00      0.00      0.00       0.000         0.000         0.000         0.000         0.000         0.000
  outfall-5             10.97      0.53      1.20       0.005         1.100         0.000         0.000         0.000         0.000
  outfall-8              0.00      0.00      0.00       0.000         0.000         0.000         0.000         0.000         0.000
  outfall-14             0.00      0.00      0.00       0.000         0.000         0.000         0.000         0.000         0.000
  outfall-16             0.00      0.00      0.00       0.000         0.000         0.000         0.000         0.000         0.000
  outfall-17             0.00      0.00      0.00       0.000         0.000         0.000         0.000         0.000         0.000
  outfall-27             0.00      0.00      0.00       0.000         0.000         0.000         0.000         0.000         0.000
  outfall-28             0.00      0.00      0.00       0.000         0.000         0.000         0.000         0.000         0.000
  67                     0.00      0.00      0.00       0.000         0.000         0.000         0.000         0.000         0.000
  12                    99.99    103.57    166.91      12.283      2049.527         0.000         0.000         0.000         0.000
  ---------------------------------------------------------------------------------------------------------------------------------
  System                17.86    165.47    249.58      17.014      2725.326         0.000         0.000         0.000         0.000
  
  
  ********************
  Link Flow Summary
  ********************
  
  -----------------------------------------------------------------------------
                                 Maximum  Time of Max   Maximum    Max/    Max/
                                  |Flow|   Occurrence   |Veloc|    Full    Full
  Link                 Type          MLD  days hr:min     m/sec    Flow   Depth
  -----------------------------------------------------------------------------
  WSL49                CONDUIT    192.73     0  02:56      2.73    2.40    0.75
  WSL50                CONDUIT     31.65     0  03:01      2.33    2.18    0.54
  WSL51                CONDUIT     31.59     0  03:01      1.52    3.21    0.80
  WSL52                CONDUIT     31.57     0  03:01      1.32    1.47    0.94
  WSL53                CONDUIT     31.54     0  03:01      1.29    3.28    0.99
  WSL54                CONDUIT     31.52     0  03:01      1.29    2.52    1.00
  WSL55                CONDUIT     31.48     0  03:00      1.29    0.83    1.00
  WSL77                CONDUIT     31.46     0  03:00      1.29    1.65    1.00
  WSL78                CONDUIT     31.43     0  03:00      1.29    2.06    1.00
  WSL79                CONDUIT     31.39     0  03:00      1.28    1.07    1.00
  WSL80                CONDUIT     31.33     0  03:00      1.33    0.73    1.00
  WSL81                CONDUIT     31.28     0  03:00      1.53    2.31    1.00
  WSL82                CONDUIT     31.25     0  03:00      1.82    0.41    0.91
  WSL83                CONDUIT     32.93     0  02:56      2.97    0.41    0.69
  WSL84                CONDUIT     22.82     0  02:53      1.85    0.69    0.52
  WSL85                CONDUIT      0.67     0  03:04      0.40    0.02    1.00
  WSL86                CONDUIT      0.62     0  03:04      0.20    0.03    1.00
  WSL122               CONDUIT     26.02     0  02:58      1.06    2.60    1.00
  WSL123               CONDUIT     32.67     0  02:54      2.32    1.21    0.62
  WSL144               CONDUIT     24.25     0  02:58      0.99    0.95    1.00
  WSL145               CONDUIT     25.96     0  02:58      1.06    2.45    1.00
  WSL146               CONDUIT     27.98     0  02:58      1.15    2.05    1.00
  WSL147               CONDUIT     27.98     0  02:58      1.15    1.45    1.00
  WSL148               CONDUIT     27.99     0  02:58      1.15    2.66    1.00
  WSL149               CONDUIT     31.18     0  02:58      1.41    4.09    0.85
  WSL150               CONDUIT     31.97     0  02:56      1.78    1.06    0.69
  WSL151               CONDUIT     31.82     0  02:56      1.81    0.81    0.69
  WSL500               CONDUIT     20.36     0  02:53      1.84    0.67    0.47
  WSL502               CONDUIT     21.61     0  02:53      1.89    0.33    0.48
  WSL508               CONDUIT      7.57     0  02:51      0.78    0.28    0.55
  WSL509               CONDUIT      7.49     0  02:51      0.84    0.33    0.48
  WSL551               CONDUIT      9.21     0  02:49      1.26    0.21    0.34
  WSL553               CONDUIT      9.25     0  02:49      0.99    0.27    0.41
  WSL554               CONDUIT      9.29     0  02:50      0.89    0.48    0.44
  WSL555               CONDUIT      9.35     0  02:50      0.97    0.39    0.42
  WSL1465              CONDUIT     45.33     0  03:24      1.42    0.41    0.74
  WSL1472              CONDUIT    122.07     0  02:59      1.84    1.39    0.72
  WSL1475              CONDUIT    193.54     0  02:55      3.21    2.07    0.49
  WSL1476              CONDUIT     40.74     0  03:01      1.38    0.20    0.65
  WSL1477              CONDUIT     10.82     0  02:53      2.24    0.43    0.25
  WSL1490              CONDUIT     38.24     0  03:26      1.37    0.62    0.55
  WSL1491              CONDUIT     41.35     0  03:25      1.31    0.24    0.62
  WSL1492              CONDUIT     39.02     0  03:27      1.26    0.60    0.68
  WSL1506              CONDUIT      0.07     0  01:24      0.40    0.00    0.05
  WSL1507              CONDUIT      0.19     0  03:03      0.21    0.00    0.17
  WSL1508              CONDUIT      5.05     0  02:51      0.82    0.14    0.20
  WSL1512              CONDUIT      5.07     0  02:52      0.56    0.03    0.19
  WSL1513              CONDUIT      5.14     0  02:53      0.46    0.30    0.31
  WSL1515              CONDUIT    100.93     0  02:55      2.77    0.99    0.40
  WSL1516              CONDUIT      9.58     0  02:53      2.06    0.03    0.26
  WSL1518              CONDUIT      9.21     0  02:51      0.79    0.18    0.31
  WSL1519              CONDUIT      9.23     0  02:52      0.78    0.23    0.32
  WSL1521              CONDUIT      9.28     0  02:53      0.85    0.27    0.30
  WSL1525              CONDUIT     21.55     0  02:55      2.05    0.40    0.58
  WSL1526              CONDUIT     23.40     0  03:01      1.77    0.39    0.83
  WSL1529              CONDUIT     23.48     0  03:02      1.67    0.60    1.00
  WSL1530              CONDUIT     22.32     0  03:03      1.54    1.19    1.00
  WSL1532              CONDUIT     24.35     0  02:58      1.12    0.58    1.00
  WSL1543              CONDUIT      9.22     0  02:52      0.76    0.29    0.32
  WSL1545              CONDUIT     24.20     0  02:58      0.99    1.00    1.00
  WSL1641              CONDUIT      7.39     0  02:50      0.83    0.31    0.44
  WSL1642              CONDUIT      6.15     0  02:50      0.84    0.18    0.35
  WSL1643              CONDUIT      6.06     0  02:50      1.03    0.18    0.29
  WSL1644              CONDUIT      5.96     0  02:49      0.89    0.31    0.32
  WSL1646              CONDUIT      4.76     0  02:49      0.78    0.14    0.30
  WSL1647              CONDUIT      4.69     0  02:49      0.93    0.16    0.26
  WSL1652              CONDUIT      2.76     0  02:50      0.65    0.17    0.30
  WSL1764              CONDUIT     22.21     0  03:03      1.43    0.41    1.00
  WSL1931              CONDUIT      2.69     0  02:49      0.63    0.23    0.30
  WSL1932              CONDUIT      2.60     0  02:48      0.61    0.17    0.30
  WSL1934              CONDUIT      2.48     0  02:48      0.79    0.09    0.24
  WSL1935              CONDUIT      2.46     0  02:47      0.92    0.13    0.21
  WSL1961              CONDUIT     33.04     0  01:39      2.59    0.07    0.31
  WSL1964              CONDUIT     36.24     0  03:02      1.21    0.20    0.41
  WSL2010              CONDUIT     66.61     0  03:03      1.36    0.85    0.69
  WSL2011              CONDUIT     66.86     0  03:03      1.28    0.43    0.72
  WSL2012              CONDUIT     67.08     0  03:03      1.22    1.02    0.76
  WSL2013              CONDUIT     69.34     0  03:02      1.29    1.72    0.74
  WSL2014              CONDUIT     74.78     0  03:01      1.46    1.19    0.71
  WSL2015              CONDUIT     74.91     0  03:01      1.55    1.01    0.67
  WSL2016              CONDUIT     78.57     0  03:02      1.71    0.90    0.64
  WSL2017              CONDUIT     78.75     0  03:02      1.84    0.96    0.60
  WSL2018              CONDUIT     83.04     0  03:02      2.30    0.50    0.52
  WSL2019              CONDUIT     83.20     0  03:02      2.16    0.49    0.58
  WSL2028              CONDUIT     66.40     0  03:02      1.36    0.71    0.68
  WSL2029              CONDUIT     79.00     0  03:02      2.09    1.00    0.55
  WSL2031              CONDUIT      2.38     0  02:47      0.88    0.09    0.22
  WSL2032              CONDUIT      2.32     0  02:47      1.04    0.16    0.26
  WSL2034              CONDUIT      7.71     0  02:50      0.70    0.23    0.63
  WSL2037              CONDUIT      8.17     0  03:13      0.68    0.42    0.68
  WSL2038              CONDUIT     12.40     0  02:50      0.97    0.62    0.71
  WSL2039              CONDUIT     16.85     0  03:12      1.58    0.87    0.77
  WSL2041              CONDUIT     13.07     0  03:13      1.13    0.64    0.74
  WSL2124              CONDUIT     13.74     0  02:49      1.24    0.33    0.46
  WSL2126              CONDUIT     13.78     0  02:50      1.10    0.53    0.51
  WSL2127              CONDUIT     13.84     0  02:50      1.28    0.75    0.46
  WSL2128              CONDUIT     13.90     0  02:51      1.24    0.33    0.47
  WSL2130              CONDUIT     18.78     0  02:50      1.46    0.57    0.52
  WSL2146              CONDUIT     18.83     0  02:51      1.36    0.48    0.55
  WSL2147              CONDUIT     18.87     0  02:51      1.40    1.02    0.54
  WSL2148              CONDUIT     18.93     0  02:51      1.54    0.46    0.51
  WSL2294              CONDUIT     61.53     0  03:01      1.46    2.07    0.93
  WSL2295              CONDUIT     63.06     0  03:02      1.66    2.83    0.85
  WSL2296              CONDUIT     70.30     0  03:00      2.24    0.40    0.70
  WSL2297              CONDUIT     66.70     0  03:01      1.39    1.28    0.67
  WSL2298              CONDUIT     78.59     0  03:01      2.69    3.62    0.64
  WSL2301              CONDUIT     66.28     0  03:01      1.40    0.61    0.66
  WSL2302              CONDUIT     66.38     0  03:01      1.36    0.81    0.68
  WSL2357              CONDUIT      3.17     0  02:49      1.15    0.57    0.46
  WSL2358              CONDUIT      3.23     0  02:49      1.38    0.37    0.41
  WSL2359              CONDUIT      3.27     0  02:49      0.71    0.12    0.32
  WSL2361              CONDUIT      6.13     0  02:50      1.03    0.34    0.38
  WSL2362              CONDUIT      6.18     0  02:50      1.06    0.29    0.38
  WSL2441              CONDUIT     61.19     0  03:01      1.41    1.57    0.99
  WSL2442              CONDUIT     53.01     0  02:59      1.59    1.36    1.00
  WSL2443              CONDUIT     52.89     0  02:58      1.59    0.82    1.00
  WSL2444              CONDUIT     52.78     0  02:58      1.83    0.84    1.00
  WSL2446              CONDUIT     50.26     0  03:09      1.85    0.86    1.00
  WSL2447              CONDUIT     50.12     0  03:08      1.74    2.58    1.00
  WSL2448              CONDUIT     53.11     0  02:47      1.73    1.49    1.00
  WSL2449              CONDUIT     41.86     0  03:12      1.38    1.46    1.00
  WSL2450              CONDUIT     41.28     0  03:11      1.35    0.86    1.00
  WSL2451              CONDUIT     40.20     0  03:11      1.29    2.62    1.00
  WSL2452              CONDUIT     39.40     0  03:12      1.27    0.75    1.00
  WSL2454              CONDUIT     37.61     0  03:12      1.46    0.88    0.99
  WSL2478              CONDUIT     36.36     0  03:11      1.37    1.28    0.99
  WSL2479              CONDUIT     33.13     0  03:11      1.30    0.63    0.95
  WSL2480              CONDUIT     32.11     0  03:12      1.33    1.49    0.91
  WSL2482              CONDUIT     31.13     0  02:50      1.32    0.81    0.89
  WSL2484              CONDUIT     29.81     0  02:50      1.83    0.42    0.77
  WSL2493              CONDUIT     53.04     0  03:00      1.22    0.89    1.00
  WSL2867              CONDUIT     91.24     0  02:55      3.83    0.19    0.30
  WSL2868              CONDUIT     87.80     0  02:55      1.98    0.17    0.47
  5                    CONDUIT      4.67     0  02:48      1.00    0.22    0.32
  WSL348               CONDUIT    114.00     0  03:00      2.07    1.04    1.00
  WSL175               CONDUIT    114.41     0  03:00      2.29    3.85    1.00
  WSL1467              CONDUIT    122.61     0  03:01      1.81    0.65    0.69
  WSL1473              CONDUIT    128.37     0  02:57      1.90    0.53    0.76
  XRpipe               CONDUIT    114.94     0  03:00      2.54    0.28    1.00
  8                    CONDUIT      1.20     0  03:02      2.58    0.02    0.09
  19                   CONDUIT      0.00     0  00:00      0.00    0.00    0.00
  17                   CONDUIT      0.00     0  00:00      0.00    0.00    0.00
  4                    CONDUIT      0.00     0  00:00      0.00    0.00    0.00
  outletpipe           CONDUIT     82.44     0  02:59     14.68    0.28    0.37
  11                   CONDUIT      0.00     0  00:00      0.00    0.00    0.00
  20                   CONDUIT      0.00     0  00:00      0.00    0.00    0.00
  1                    CONDUIT      0.00     0  00:00      0.00    0.00    0.00
  28                   CONDUIT      0.00     0  00:00      0.00    0.00    0.00
  30                   CONDUIT      0.00     0  00:00      0.00    0.00    0.00
  2                    CONDUIT    166.91     0  02:58      4.26    0.60    0.56
  XR-Pump-1            PUMP         8.12     0  00:02              1.00
  XR-Pump-3            PUMP         8.12     0  00:09              1.00
  XR-Pump-2            PUMP         8.12     0  00:04              1.00
  XR-Pump-4            PUMP         8.12     0  01:31              1.00
  CC-Pump-1            PUMP        17.28     0  01:05              1.00
  CC-Pump-2            PUMP         0.00     0  00:00              0.00
  JK-Pump-1            PUMP        17.28     0  01:31              1.00
  JK-Pump-2            PUMP         0.00     0  00:00              0.00
  
  
  ***************************
  Flow Classification Summary
  ***************************
  
  -------------------------------------------------------------------------------------
                      Adjusted    ---------- Fraction of Time in Flow Class ---------- 
                       /Actual         Up    Down  Sub   Sup   Up    Down  Norm  Inlet 
  Conduit               Length    Dry  Dry   Dry   Crit  Crit  Crit  Crit  Ltd   Ctrl  
  -------------------------------------------------------------------------------------
  WSL49                   1.00   0.00  0.00  0.00  1.00  0.00  0.00  0.00  0.00  0.00
  WSL50                   1.00   0.00  0.00  0.00  0.03  0.97  0.00  0.00  0.00  0.00
  WSL51                   1.00   0.00  0.00  0.00  1.00  0.00  0.00  0.00  0.01  0.00
  WSL52                   1.00   0.00  0.00  0.00  1.00  0.00  0.00  0.00  0.10  0.00
  WSL53                   1.00   0.00  0.00  0.00  1.00  0.00  0.00  0.00  0.01  0.00
  WSL54                   1.00   0.00  0.00  0.00  1.00  0.00  0.00  0.00  0.00  0.00
  WSL55                   1.00   0.00  0.00  0.00  1.00  0.00  0.00  0.00  0.21  0.00
  WSL77                   1.00   0.00  0.00  0.00  1.00  0.00  0.00  0.00  0.00  0.00
  WSL78                   1.00   0.00  0.00  0.00  1.00  0.00  0.00  0.00  0.00  0.00
  WSL79                   1.00   0.00  0.00  0.00  1.00  0.00  0.00  0.00  0.35  0.00
  WSL80                   1.00   0.00  0.00  0.00  1.00  0.00  0.00  0.00  0.38  0.00
  WSL81                   1.00   0.00  0.00  0.00  1.00  0.00  0.00  0.00  0.00  0.00
  WSL82                   1.00   0.00  0.00  0.00  0.33  0.67  0.00  0.00  0.65  0.00
  WSL83                   1.00   0.00  0.00  0.00  0.06  0.94  0.00  0.00  0.38  0.00
  WSL84                   1.00   0.00  0.00  0.00  0.02  0.98  0.00  0.00  0.05  0.00
  WSL85                   1.00   0.00  0.00  0.00  1.00  0.00  0.00  0.00  0.12  0.00
  WSL86                   1.00   0.00  0.00  0.00  1.00  0.00  0.00  0.00  0.39  0.00
  WSL122                  1.00   0.00  0.00  0.00  1.00  0.00  0.00  0.00  0.00  0.00
  WSL123                  1.00   0.00  0.00  0.00  0.02  0.98  0.00  0.00  0.02  0.00
  WSL144                  1.00   0.00  0.00  0.00  1.00  0.00  0.00  0.00  0.26  0.00
  WSL145                  1.00   0.00  0.00  0.00  1.00  0.00  0.00  0.00  0.01  0.00
  WSL146                  1.00   0.00  0.00  0.00  1.00  0.00  0.00  0.00  0.03  0.00
  WSL147                  1.00   0.00  0.00  0.00  1.00  0.00  0.00  0.00  0.04  0.00
  WSL148                  1.00   0.00  0.00  0.00  1.00  0.00  0.00  0.00  0.00  0.00
  WSL149                  1.00   0.00  0.00  0.00  1.00  0.00  0.00  0.00  0.01  0.00
  WSL150                  1.00   0.00  0.00  0.00  0.85  0.15  0.00  0.00  0.00  0.00
  WSL151                  1.00   0.00  0.00  0.00  0.92  0.08  0.00  0.00  0.13  0.00
  WSL500                  1.00   0.00  0.00  0.00  0.01  0.99  0.00  0.00  0.00  0.00
  WSL502                  1.00   0.00  0.00  0.00  0.01  0.99  0.00  0.00  0.81  0.00
  WSL508                  1.00   0.00  0.00  0.00  1.00  0.00  0.00  0.00  0.07  0.00
  WSL509                  1.00   0.00  0.00  0.00  1.00  0.00  0.00  0.00  0.01  0.00
  WSL551                  1.00   0.00  0.00  0.00  0.08  0.92  0.00  0.00  0.62  0.00
  WSL553                  1.00   0.00  0.00  0.00  1.00  0.00  0.00  0.00  0.86  0.00
  WSL554                  1.00   0.00  0.00  0.00  1.00  0.00  0.00  0.00  0.23  0.00
  WSL555                  1.00   0.00  0.00  0.00  1.00  0.00  0.00  0.00  0.00  0.00
  WSL1465                 1.00   0.00  0.00  0.00  1.00  0.00  0.00  0.00  0.05  0.00
  WSL1472                 1.00   0.00  0.00  0.00  1.00  0.00  0.00  0.00  0.00  0.00
  WSL1475                 1.00   0.00  0.00  0.00  0.23  0.77  0.00  0.00  0.01  0.00
  WSL1476                 1.00   0.00  0.00  0.00  1.00  0.00  0.00  0.00  1.00  0.00
  WSL1477                 1.00   0.00  0.00  0.00  0.00  1.00  0.00  0.00  0.17  0.00
  WSL1490                 1.00   0.00  0.00  0.00  1.00  0.00  0.00  0.00  0.00  0.00
  WSL1491                 1.00   0.00  0.00  0.00  1.00  0.00  0.00  0.00  0.02  0.00
  WSL1492                 1.00   0.00  0.00  0.00  1.00  0.00  0.00  0.00  0.00  0.00
  WSL1506                 1.00   0.00  0.00  0.00  1.00  0.00  0.00  0.00  0.99  0.00
  WSL1507                 1.00   0.00  0.00  0.00  1.00  0.00  0.00  0.00  0.73  0.00
  WSL1508                 1.00   0.00  0.00  0.00  1.00  0.00  0.00  0.00  0.00  0.00
  WSL1512                 1.00   0.00  0.00  0.00  1.00  0.00  0.00  0.00  1.00  0.00
  WSL1513                 1.00   0.00  0.00  0.00  1.00  0.00  0.00  0.00  0.00  0.00
  WSL1515                 1.00   0.00  0.00  0.00  0.05  0.95  0.00  0.00  0.02  0.00
  WSL1516                 1.00   0.00  0.00  0.00  0.00  1.00  0.00  0.00  1.00  0.00
  WSL1518                 1.00   0.00  0.00  0.00  1.00  0.00  0.00  0.00  0.59  0.00
  WSL1519                 1.00   0.00  0.00  0.00  1.00  0.00  0.00  0.00  0.36  0.00
  WSL1521                 1.00   0.00  0.00  0.00  1.00  0.00  0.00  0.00  0.02  0.00
  WSL1525                 1.00   0.00  0.00  0.00  0.06  0.94  0.00  0.00  0.17  0.00
  WSL1526                 1.00   0.00  0.00  0.00  0.17  0.83  0.00  0.00  0.44  0.00
  WSL1529                 1.00   0.00  0.00  0.00  0.19  0.81  0.00  0.00  0.83  0.00
  WSL1530                 1.00   0.00  0.00  0.00  0.47  0.53  0.00  0.00  0.00  0.00
  WSL1532                 1.00   0.00  0.00  0.00  1.00  0.00  0.00  0.00  0.84  0.00
  WSL1543                 1.00   0.00  0.00  0.00  1.00  0.00  0.00  0.00  0.02  0.00
  WSL1545                 1.00   0.00  0.00  0.00  1.00  0.00  0.00  0.00  0.05  0.00
  WSL1641                 1.00   0.00  0.00  0.00  1.00  0.00  0.00  0.00  0.30  0.00
  WSL1642                 1.00   0.00  0.00  0.00  1.00  0.00  0.00  0.00  0.86  0.00
  WSL1643                 1.00   0.00  0.00  0.00  1.00  0.00  0.00  0.00  0.32  0.00
  WSL1644                 1.00   0.00  0.00  0.00  1.00  0.00  0.00  0.00  0.02  0.00
  WSL1646                 1.00   0.00  0.00  0.00  1.00  0.00  0.00  0.00  0.99  0.00
  WSL1647                 1.00   0.00  0.00  0.00  1.00  0.00  0.00  0.00  0.02  0.00
  WSL1652                 1.00   0.00  0.00  0.00  1.00  0.00  0.00  0.00  0.45  0.00
  WSL1764                 1.00   0.00  0.00  0.00  0.52  0.48  0.00  0.00  0.34  0.00
  WSL1931                 1.00   0.00  0.00  0.00  1.00  0.00  0.00  0.00  0.00  0.00
  WSL1932                 1.00   0.00  0.00  0.00  1.00  0.00  0.00  0.00  0.80  0.00
  WSL1934                 1.00   0.00  0.00  0.00  1.00  0.00  0.00  0.00  1.00  0.00
[...]
  WSL147                      0.37      0.42      0.37      0.65         0.37
  WSL148                      0.19      0.37      0.19      1.44         0.19
  WSL149                      0.01      0.19      0.01      2.05         0.01
  WSL150                      0.01      0.01      0.01      0.18         0.01
  WSL1472                     0.01      0.01      0.01      0.88         0.01
  WSL1475                     0.01      0.01      0.01      1.24         0.01
  WSL1476                     0.01      0.01      0.47      0.01         0.01
  WSL1526                     0.01      0.01      0.02      0.01         0.01
  WSL1529                     0.02      0.02      0.09      0.01         0.01
  WSL1530                     0.38      0.38      0.39      0.46         0.37
  WSL1532                     0.28      0.28      0.49      0.01         0.01
  WSL1545                     0.49      0.49      0.52      0.01         0.03
  WSL1764                     0.09      0.09      0.30      0.01         0.01
  WSL2012                     0.01      0.01      0.01      0.19         0.01
  WSL2013                     0.01      0.01      0.01      0.99         0.01
  WSL2014                     0.01      0.01      0.01      0.47         0.01
  WSL2015                     0.01      0.01      0.01      0.08         0.01
  WSL2147                     0.01      0.01      0.01      0.15         0.01
  WSL2294                     0.01      0.01      0.01      1.26         0.01
  WSL2295                     0.01      0.01      0.01      1.75         0.01
  WSL2297                     0.01      0.01      0.01      0.51         0.01
  WSL2298                     0.01      0.01      0.01      1.86         0.01
  WSL2441                     0.01      0.24      0.01      0.75         0.01
  WSL2442                     0.45      0.47      0.45      0.59         0.45
  WSL2443                     0.37      0.37      0.47      0.01         0.01
  WSL2444                     0.32      0.32      0.37      0.01         0.01
  WSL2446                     0.25      0.25      0.32      0.01         0.01
  WSL2447                     0.25      0.31      0.25      1.74         0.25
  WSL2448                     0.31      0.31      0.31      0.61         0.30
  WSL2449                     0.31      0.33      0.31      0.58         0.30
  WSL2450                     0.28      0.28      0.33      0.01         0.01
  WSL2451                     0.28      0.31      0.28      1.41         0.28
  WSL2452                     0.22      0.22      0.31      0.01         0.01
  WSL2454                     0.01      0.01      0.22      0.01         0.01
  WSL2478                     0.01      0.01      0.01      0.54         0.01
  WSL2479                     0.01      0.01      0.01      0.01         0.01
  WSL2480                     0.01      0.01      0.01      0.90         0.01
  WSL2493                     0.13      0.13      0.24      0.01         0.01
  WSL348                      2.07      2.07      2.09      0.61         0.61
  WSL175                      2.09      2.09      2.09      2.37         2.08
  XRpipe                      2.09      2.09      3.96      0.01         0.01
  
  
  ***************
  Pumping Summary
  ***************
  
  ---------------------------------------------------------------------------------------------------------
                                                  Min       Avg       Max     Total     Power    % Time Off
                        Percent   Number of      Flow      Flow      Flow    Volume     Usage    Pump Curve
  Pump                 Utilized   Start-Ups       MLD       MLD       MLD  10^6 ltr     Kw-hr    Low   High
  ---------------------------------------------------------------------------------------------------------
  XR-Pump-1               98.82           1      0.00      8.12      8.12     1.337     10.21    0.0    0.0
  XR-Pump-3               91.38           7      0.00      8.12      8.12     1.237      8.91    0.0    0.0
  XR-Pump-2               98.05           1      0.00      8.12      8.12     1.327     10.07    0.0    0.0
  XR-Pump-4               60.93           3      0.00      8.12      8.12     0.824      3.58    0.0    0.0
  CC-Pump-1               32.88           7      0.00     17.28     17.28     0.947      7.43    0.0    0.0
  CC-Pump-2                0.00           0      0.00      0.00      0.00     0.000      0.00    0.0    0.0
  JK-Pump-1               30.08           6      0.00     17.28     17.28     0.866      6.31    0.0    0.0
  JK-Pump-2                0.00           0      0.00      0.00      0.00     0.000      0.00    0.0    0.0
  
  
  ***************************
  Link Pollutant Load Summary
  ***************************
  
  ------------------------------------------------------------------------------------------
                                 COD         NH3-N            TN            TP            SS
  Link                            kg            kg            kg            kg            kg
  ------------------------------------------------------------------------------------------
  WSL49                     2022.864         0.000         0.000         0.000         0.000
  WSL50                      356.807         0.000         0.000         0.000         0.000
  WSL51                      355.759         0.000         0.000         0.000         0.000
  WSL52                      356.246         0.000         0.000         0.000         0.000
  WSL53                      356.222         0.000         0.000         0.000         0.000
  WSL54                      357.054         0.000         0.000         0.000         0.000
  WSL55                      356.419         0.000         0.000         0.000         0.000
  WSL77                      356.557         0.000         0.000         0.000         0.000
  WSL78                      356.533         0.000         0.000         0.000         0.000
  WSL79                      356.197         0.000         0.000         0.000         0.000
  WSL80                      355.324         0.000         0.000         0.000         0.000
  WSL81                      354.052         0.000         0.000         0.000         0.000
  WSL82                      353.443         0.000         0.000         0.000         0.000
  WSL83                      353.407         0.000         0.000         0.000         0.000
  WSL84                      200.110         0.000         0.000         0.000         0.000
  WSL85                        4.408         0.000         0.000         0.000         0.000
  WSL86                        1.844         0.000         0.000         0.000         0.000
  WSL122                     280.963         0.000         0.000         0.000         0.000
  WSL123                     352.331         0.000         0.000         0.000         0.000
  WSL144                     236.952         0.000         0.000         0.000         0.000
  WSL145                     280.455         0.000         0.000         0.000         0.000
  WSL146                     296.431         0.000         0.000         0.000         0.000
  WSL147                     296.211         0.000         0.000         0.000         0.000
  WSL148                     295.622         0.000         0.000         0.000         0.000
  WSL149                     351.230         0.000         0.000         0.000         0.000
  WSL150                     352.504         0.000         0.000         0.000         0.000
  WSL151                     352.478         0.000         0.000         0.000         0.000
  WSL500                     181.305         0.000         0.000         0.000         0.000
  WSL502                     198.645         0.000         0.000         0.000         0.000
  WSL508                      85.772         0.000         0.000         0.000         0.000
  WSL509                      83.831         0.000         0.000         0.000         0.000
  WSL551                     102.576         0.000         0.000         0.000         0.000
  WSL553                     103.531         0.000         0.000         0.000         0.000
  WSL554                     104.622         0.000         0.000         0.000         0.000
  WSL555                     106.049         0.000         0.000         0.000         0.000
  WSL1465                    703.324         0.000         0.000         0.000         0.000
  WSL1472                   1574.074         0.000         0.000         0.000         0.000
  WSL1475                   2039.581         0.000         0.000         0.000         0.000
  WSL1476                    449.250         0.000         0.000         0.000         0.000
  WSL1477                     91.265         0.000         0.000         0.000         0.000
  WSL1490                    690.406         0.000         0.000         0.000         0.000
  WSL1491                    694.221         0.000         0.000         0.000         0.000
  WSL1492                    700.340         0.000         0.000         0.000         0.000
  WSL1506                      1.646         0.000         0.000         0.000         0.000
  WSL1507                      2.205         0.000         0.000         0.000         0.000
  WSL1508                     57.560         0.000         0.000         0.000         0.000
  WSL1512                     57.871         0.000         0.000         0.000         0.000
  WSL1513                     59.226         0.000         0.000         0.000         0.000
  WSL1515                    865.968         0.000         0.000         0.000         0.000
  WSL1516                     91.986         0.000         0.000         0.000         0.000
  WSL1518                     88.908         0.000         0.000         0.000         0.000
  WSL1519                     89.435         0.000         0.000         0.000         0.000
  WSL1521                     90.427         0.000         0.000         0.000         0.000
  WSL1525                    201.535         0.000         0.000         0.000         0.000
  WSL1526                    201.932         0.000         0.000         0.000         0.000
  WSL1529                    210.864         0.000         0.000         0.000         0.000
  WSL1530                    214.111         0.000         0.000         0.000         0.000
  WSL1532                    232.861         0.000         0.000         0.000         0.000
  WSL1543                     89.109         0.000         0.000         0.000         0.000
  WSL1545                    235.967         0.000         0.000         0.000         0.000
  WSL1641                     80.648         0.000         0.000         0.000         0.000
  WSL1642                     69.779         0.000         0.000         0.000         0.000
  WSL1643                     67.083         0.000         0.000         0.000         0.000
  WSL1644                     64.418         0.000         0.000         0.000         0.000
  WSL1646                     53.765         0.000         0.000         0.000         0.000
  WSL1647                     51.700         0.000         0.000         0.000         0.000
  WSL1652                     36.378         0.000         0.000         0.000         0.000
  WSL1764                    212.390         0.000         0.000         0.000         0.000
  WSL1931                     34.442         0.000         0.000         0.000         0.000
  WSL1932                     31.699         0.000         0.000         0.000         0.000
  WSL1934                     28.392         0.000         0.000         0.000         0.000
  WSL1935                     27.703         0.000         0.000         0.000         0.000
  WSL1961                    678.040         0.000         0.000         0.000         0.000
  WSL1964                    686.674         0.000         0.000         0.000         0.000
  WSL2010                    617.069         0.000         0.000         0.000         0.000
  WSL2011                    621.793         0.000         0.000         0.000         0.000
  WSL2012                    626.871         0.000         0.000         0.000         0.000
  WSL2013                    647.456         0.000         0.000         0.000         0.000
  WSL2014                    757.536         0.000         0.000         0.000         0.000
  WSL2015                    758.158         0.000         0.000         0.000         0.000
  WSL2016                    818.458         0.000         0.000         0.000         0.000
  WSL2017                    820.232         0.000         0.000         0.000         0.000
  WSL2018                    858.713         0.000         0.000         0.000         0.000
  WSL2019                    860.213         0.000         0.000         0.000         0.000
  WSL2028                    612.867         0.000         0.000         0.000         0.000
  WSL2029                    824.761         0.000         0.000         0.000         0.000
  WSL2031                     25.570         0.000         0.000         0.000         0.000
  WSL2032                     23.746         0.000         0.000         0.000         0.000
  WSL2034                     86.671         0.000         0.000         0.000         0.000
  WSL2037                     87.934         0.000         0.000         0.000         0.000
  WSL2038                    124.218         0.000         0.000         0.000         0.000
  WSL2039                    130.859         0.000         0.000         0.000         0.000
  WSL2041                    127.620         0.000         0.000         0.000         0.000
  WSL2124                    138.214         0.000         0.000         0.000         0.000
  WSL2126                    139.015         0.000         0.000         0.000         0.000
  WSL2127                    140.407         0.000         0.000         0.000         0.000
  WSL2128                    141.861         0.000         0.000         0.000         0.000
  WSL2130                    176.851         0.000         0.000         0.000         0.000
  WSL2146                    178.184         0.000         0.000         0.000         0.000
  WSL2147                    178.903         0.000         0.000         0.000         0.000
  WSL2148                    179.957         0.000         0.000         0.000         0.000
  WSL2294                    595.220         0.000         0.000         0.000         0.000
  WSL2295                    595.812         0.000         0.000         0.000         0.000
  WSL2296                    604.558         0.000         0.000         0.000         0.000
  WSL2297                    607.573         0.000         0.000         0.000         0.000
  WSL2298                    598.476         0.000         0.000         0.000         0.000
  WSL2301                    608.350         0.000         0.000         0.000         0.000
  WSL2302                    612.794         0.000         0.000         0.000         0.000
  WSL2357                     38.554         0.000         0.000         0.000         0.000
  WSL2358                     40.141         0.000         0.000         0.000         0.000
  WSL2359                     41.093         0.000         0.000         0.000         0.000
  WSL2361                     78.584         0.000         0.000         0.000         0.000
  WSL2362                     79.833         0.000         0.000         0.000         0.000
  WSL2441                    594.654         0.000         0.000         0.000         0.000
  WSL2442                    466.287         0.000         0.000         0.000         0.000
  WSL2443                    465.056         0.000         0.000         0.000         0.000
  WSL2444                    461.960         0.000         0.000         0.000         0.000
  WSL2446                    460.091         0.000         0.000         0.000         0.000
  WSL2447                    456.995         0.000         0.000         0.000         0.000
  WSL2448                    453.539         0.000         0.000         0.000         0.000
  WSL2449                    331.203         0.000         0.000         0.000         0.000
  WSL2450                    328.417         0.000         0.000         0.000         0.000
  WSL2451                    326.770         0.000         0.000         0.000         0.000
  WSL2452                    325.352         0.000         0.000         0.000         0.000
  WSL2454                    321.301         0.000         0.000         0.000         0.000
  WSL2478                    319.799         0.000         0.000         0.000         0.000
  WSL2479                    292.928         0.000         0.000         0.000         0.000
  WSL2480                    290.993         0.000         0.000         0.000         0.000
  WSL2482                    286.645         0.000         0.000         0.000         0.000
  WSL2484                    265.893         0.000         0.000         0.000         0.000
  WSL2493                    468.860         0.000         0.000         0.000         0.000
  WSL2867                    866.585         0.000         0.000         0.000         0.000
  WSL2868                    869.790         0.000         0.000         0.000         0.000
  5                           51.264         0.000         0.000         0.000         0.000
  WSL348                    1334.147         0.000         0.000         0.000         0.000
  WSL175                    1340.544         0.000         0.000         0.000         0.000
  WSL1467                   1571.729         0.000         0.000         0.000         0.000
  WSL1473                   1576.437         0.000         0.000         0.000         0.000
  XRpipe                    1353.217         0.000         0.000         0.000         0.000
  8                            1.100         0.000         0.000         0.000         0.000
  19                           0.000         0.000         0.000         0.000         0.000
  17                           0.000         0.000         0.000         0.000         0.000
  4                            0.000         0.000         0.000         0.000         0.000
  outletpipe                 674.700         0.000         0.000         0.000         0.000
  11                           0.000         0.000         0.000         0.000         0.000
  20                           0.000         0.000         0.000         0.000         0.000
  1                            0.000         0.000         0.000         0.000         0.000
  28                           0.000         0.000         0.000         0.000         0.000
  30                           0.000         0.000         0.000         0.000         0.000
  2                         2049.527         0.000         0.000         0.000         0.000
  XR-Pump-1                  192.142         0.000         0.000         0.000         0.000
  XR-Pump-3                  175.371         0.000         0.000         0.000         0.000
  XR-Pump-2                  190.416         0.000         0.000         0.000         0.000
  XR-Pump-4                  108.261         0.000         0.000         0.000         0.000
  CC-Pump-1                  134.099         0.000         0.000         0.000         0.000
  CC-Pump-2                    0.000         0.000         0.000         0.000         0.000
  JK-Pump-1                  119.629         0.000         0.000         0.000         0.000
  JK-Pump-2                    0.000         0.000         0.000         0.000         0.000
  

  Analysis begun on:  Mon Oct 29 01:04:13 2018
  Analysis ended on:  Mon Oct 29 01:04:16 2018
  Total elapsed time: 00:00:03