
  EPA STORM WATER MANAGEMENT MODEL - VERSION 5.1 (Build 5.2.0.dev1)
  --------------------------------------------------------------

  
  *********************************************************
  NOTE: The summary statistics displayed in this report are
  based on results found at every computational time step,  
  not just on results from each reporting time step.
  *********************************************************
  
  ****************
  Analysis Options
  ****************
  Flow Units ............... MLD
  Process Models:
    Rainfall/Runoff ........ YES
    RDII ................... NO
    Snowmelt ............... NO
    Groundwater ............ NO
    Flow Routing ........... YES
    Ponding Allowed ........ NO
    Water Quality .......... YES
  Infiltration Method ...... GREEN_AMPT
  Flow Routing Method ...... DYNWAVE
  Starting Date ............ 08/28/2015 08:00:00
  Ending Date .............. 08/28/2015 12:00:00
  Antecedent Dry Days ...... 4.0
  Report Time Step ......... 00:01:00
  Wet Time Step ............ 00:01:00
  Dry Time Step ............ 00:01:00
  Routing Time Step ........ 5.00 sec
  Variable Time Step ....... YES
  Maximum Trials ........... 8
  Number of Threads ........ 1
  Head Tolerance ........... 0.001500 m
  
  
  **************************        Volume         Depth
  Runoff Quantity Continuity     hectare-m            mm
  **************************     ---------       -------
  Total Precipitation ......         2.193         6.632
  Evaporation Loss .........         0.000         0.000
  Infiltration Loss ........         1.315         3.978
  Surface Runoff ...........         0.358         1.083
  Final Storage ............         0.520         1.574
  Continuity Error (%) .....        -0.041
  
  
  **************************           COD         NH3-N            TN            TP            SS
  Runoff Quality Continuity             kg            kg            kg            kg            kg
  **************************    ----------    ----------    ----------    ----------    ----------
  Initial Buildup ..........     15404.640         0.000         0.000         0.000         0.000
  Surface Buildup ..........       147.174         0.000         0.000         0.000         0.000
  Wet Deposition ...........         0.000         0.000         0.000         0.000         0.000
  Sweeping Removal .........         0.000         0.000         0.000         0.000         0.000
  Infiltration Loss ........        44.602         0.000         0.000         0.000         0.000
  BMP Removal ..............         0.000         0.000         0.000         0.000         0.000
  Surface Runoff ...........       199.860         0.000         0.000         0.000         0.000
  Remaining Buildup ........     15307.044         0.000         0.000         0.000         0.000
  Continuity Error (%) .....         0.002         0.000         0.000         0.000         0.000
  
  
  **************************        Volume        Volume
  Flow Routing Continuity        hectare-m      10^6 ltr
  **************************     ---------     ---------
  Dry Weather Inflow .......         0.000         0.000
  Wet Weather Inflow .......         0.357         3.569
  Groundwater Inflow .......         0.000         0.000
  RDII Inflow ..............         0.000         0.000
  External Inflow ..........         0.621         6.206
  External Outflow .........         0.888         8.884
  Flooding Loss ............         0.000         0.000
  Evaporation Loss .........         0.000         0.000
  Exfiltration Loss ........         0.000         0.000
  Initial Stored Volume ....         0.000         0.000
  Final Stored Volume ......         0.090         0.899
  Continuity Error (%) .....        -0.091
  
  
  **************************           COD         NH3-N            TN            TP            SS
  Quality Routing Continuity            kg            kg            kg            kg            kg
  **************************    ----------    ----------    ----------    ----------    ----------
  Dry Weather Inflow .......         0.000         0.000         0.000         0.000         0.000
  Wet Weather Inflow .......       199.356         0.000         0.000         0.000         0.000
  Groundwater Inflow .......         0.000         0.000         0.000         0.000         0.000
  RDII Inflow ..............         0.000         0.000         0.000         0.000         0.000
  External Inflow ..........      1036.456         0.000         0.000         0.000         0.000
  External Outflow .........      1148.573         0.000         0.000         0.000         0.000
  Flooding Loss ............         0.000         0.000         0.000         0.000         0.000
  Exfiltration Loss ........         0.000         0.000         0.000         0.000         0.000
  Mass Reacted .............         0.000         0.000         0.000         0.000         0.000
  Initial Stored Mass ......         0.000         0.000         0.000         0.000         0.000
  Final Stored Mass ........        88.206         0.000         0.000         0.000         0.000
  Continuity Error (%) .....        -0.078         0.000         0.000         0.000         0.000
  
  
  *************************
  Highest Continuity Errors
  *************************
  Node WS02003123 (1.96%)
  Node WS02003099 (1.57%)
  Node WS02003094 (1.32%)
  
  
  ***************************
  Time-Step Critical Elements
  ***************************
  Link outletpipe (43.69%)
  Link WSL2448 (41.70%)
  Link WSL1477 (5.44%)
  Link WSL2867 (4.79%)
  Link WSL150 (1.04%)
  
  
  ********************************
  Highest Flow Instability Indexes
  ********************************
  Link WSL1477 (64)
  Link WSL1516 (58)
  Link WSL84 (13)
  Link XRpipe (12)
  Link WSL175 (11)
  
  
  *************************
  Routing Time Step Summary
  *************************
  Minimum Time Step           :     0.50 sec
  Average Time Step           :     2.02 sec
  Maximum Time Step           :     5.00 sec
  Percent in Steady State     :     0.00
  Average Iterations per Step :     2.35
  Percent Not Converging      :     3.78
  
  
  ***************************
  Subcatchment Runoff Summary
  ***************************
  
  --------------------------------------------------------------------------------------------------------
                            Total      Total      Total      Total      Total       Total     Peak  Runoff
                           Precip      Runon       Evap      Infil     Runoff      Runoff   Runoff   Coeff
  Subcatchment                 mm         mm         mm         mm         mm    10^6 ltr      MLD
  --------------------------------------------------------------------------------------------------------
  1                          6.63       4.12       0.00       5.71       3.02        0.04     0.89   0.281
  2                          6.63       0.00       0.00       4.88       1.55        0.05     1.33   0.233
  3                          6.63       0.00       0.00       4.88       1.50        0.08     1.90   0.226
  4                          6.63       0.00       0.00       4.88       1.57        0.04     1.09   0.237
  5                          6.63       3.87       0.00       5.70       2.86        0.05     1.18   0.272
  6                          6.63       0.00       0.00       4.88       1.50        0.07     1.85   0.227
  7                          6.63       0.00       0.00       2.85       1.15        1.84    33.46   0.173
  8                          6.63       0.00       0.00       4.88       1.52        0.06     1.63   0.229
  9                          6.63       1.49       0.00       5.23       1.94        0.07     1.80   0.238
  10                         6.63       2.29       0.00       5.36       2.28        0.04     1.05   0.255
  11                         6.63       0.00       0.00       4.88       1.60        0.03     0.84   0.242
  13                         6.63      19.30       0.00       7.03      12.83        0.02     0.39   0.495
  14                         6.63      22.27       0.00       7.69      15.52        0.03     0.67   0.537
  16                         6.63       3.04       0.00       5.32       2.61        0.02     0.43   0.269
  17                         6.63       0.00       0.00       4.88       1.54        0.06     1.44   0.232
  18                         6.63       0.00       0.00       4.88       1.52        0.07     1.66   0.229
  19                         6.63       0.00       0.00       4.88       1.58        0.04     1.04   0.238
  20                         6.63       1.42       0.00       5.22       1.97        0.06     1.38   0.244
  21                         6.63       3.62       0.00       5.64       2.79        0.04     1.04   0.272
  22                         6.63       2.87       0.00       5.54       2.52        0.04     1.12   0.265
  23                         6.63       0.00       0.00       4.87       1.70        0.01     0.34   0.256
  24                         6.63       0.00       0.00       4.88       1.59        0.03     0.92   0.240
  25                         6.63       0.00       0.00       4.87       1.65        0.02     0.52   0.249
  26                         6.63       0.00       0.00       4.88       1.60        0.03     0.85   0.241
  27                         6.63       0.00       0.00       4.88       1.60        0.03     0.83   0.242
  28                         6.63       3.86       0.00       5.69       2.72        0.07     1.69   0.259
  29                         6.63       1.49       0.00       5.19       1.98        0.05     1.20   0.244
  30                         6.63       5.88       0.00       6.05       3.88        0.04     0.87   0.310
  31                         6.63       0.00       0.00       4.88       1.54        0.05     1.40   0.233
  32                         6.63       0.00       0.00       4.88       1.50        0.08     1.91   0.226
  33                         6.63       0.00       0.00       4.87       1.68        0.01     0.41   0.253
  34                         6.63       3.25       0.00       5.61       2.61        0.05     1.32   0.264
  35                         6.63       0.00       0.00       4.88       1.56        0.05     1.22   0.235
  36                         6.63       2.78       0.00       5.51       2.21        0.13     3.04   0.235
  37                         6.63       0.00       0.00       4.88       1.52        0.07     1.71   0.228
  38                         6.63       0.00       0.00       4.88       1.56        0.05     1.18   0.236
  39                         6.63       0.00       0.00       4.88       1.55        0.05     1.35   0.233
  40                         6.63       0.80       0.00       5.08       1.74        0.07     1.70   0.235
  41                         6.63       0.00       0.00       4.88       1.60        0.03     0.83   0.242
  42                         6.63       0.00       0.00       4.88       1.59        0.04     0.95   0.240
  43                         6.63       0.00       0.00       4.84       1.75        0.01     0.19   0.264
  44                         6.63      36.90       0.00       8.95      24.35        0.09     1.78   0.559
  45                         6.63       0.00       0.00       4.87       1.66        0.02     0.48   0.251
  46                         6.63       2.26       0.00       5.41       2.27        0.05     1.22   0.256
  47                         6.63       0.00       0.00       4.87       1.66        0.02     0.51   0.250
  48                         6.63       1.16       0.00       5.17       1.98        0.03     0.82   0.253
  49                         6.63       0.00       0.00       4.88       1.59        0.03     0.90   0.240
  50                         6.63       1.93       0.00       5.33       2.20        0.04     0.99   0.257
  51                         6.63       1.60       0.00       5.26       2.06        0.04     1.12   0.251
  52                         6.63       0.00       0.00       4.88       1.59        0.03     0.90   0.240
  53                         6.63       0.79       0.00       5.08       1.85        0.03     0.86   0.249
  54                         6.63       0.00       0.00       4.87       1.68        0.01     0.39   0.253
  55                         6.63       1.70       0.00       5.28       2.26        0.02     0.51   0.271
  56                         6.63       2.47       0.00       5.44       2.33        0.05     1.24   0.256
  57                         6.63       0.00       0.00       4.88       1.50        0.08     1.87   0.227
  58                         6.63       0.00       0.00       4.87       1.66        0.02     0.48   0.251
  59                         6.63       0.00       0.00       4.87       1.68        0.01     0.40   0.253
  60                         6.63       3.80       0.00       5.70       3.22        0.02     0.44   0.308
  61                         6.63       0.00       0.00       4.89       1.31        0.24     5.44   0.198
  62                         6.63       0.00       0.00       4.89       1.30        0.25     5.68   0.197
  63                         6.63       0.00       0.00       4.87       1.67        0.02     0.45   0.251
  64                         6.63       0.00       0.00       4.87       1.65        0.02     0.54   0.249
  65                         6.63       0.00       0.00       4.88       1.62        0.03     0.75   0.244
  
  
  ****************************
  Subcatchment Washoff Summary
  ****************************
  
  ------------------------------------------------------------------------------------------
                                 COD         NH3-N            TN            TP            SS
  Subcatchment                    kg            kg            kg            kg            kg
  ------------------------------------------------------------------------------------------
  1                            1.349         0.000         0.000         0.000         0.000
  2                            0.000         0.000         0.000         0.000         0.000
  3                            0.000         0.000         0.000         0.000         0.000
  4                            2.337         0.000         0.000         0.000         0.000
  5                            5.518         0.000         0.000         0.000         0.000
  6                            3.933         0.000         0.000         0.000         0.000
  7                           78.732         0.000         0.000         0.000         0.000
  8                            3.463         0.000         0.000         0.000         0.000
  9                            5.618         0.000         0.000         0.000         0.000
  10                           4.388         0.000         0.000         0.000         0.000
  11                           1.815         0.000         0.000         0.000         0.000
  13                          10.778         0.000         0.000         0.000         0.000
  14                          10.110         0.000         0.000         0.000         0.000
  16                           3.842         0.000         0.000         0.000         0.000
  17                           3.069         0.000         0.000         0.000         0.000
  18                           3.532         0.000         0.000         0.000         0.000
  19                           2.239         0.000         0.000         0.000         0.000
  20                           4.290         0.000         0.000         0.000         0.000
  21                           5.011         0.000         0.000         0.000         0.000
  22                           4.565         0.000         0.000         0.000         0.000
  23                           0.735         0.000         0.000         0.000         0.000
  24                           1.979         0.000         0.000         0.000         0.000
  25                           1.125         0.000         0.000         0.000         0.000
  26                           1.831         0.000         0.000         0.000         0.000
  27                           1.791         0.000         0.000         0.000         0.000
  28                           8.855         0.000         0.000         0.000         0.000
  29                           4.425         0.000         0.000         0.000         0.000
  30                           5.322         0.000         0.000         0.000         0.000
  31                           2.984         0.000         0.000         0.000         0.000
  32                           4.051         0.000         0.000         0.000         0.000
  33                           0.889         0.000         0.000         0.000         0.000
  34                           5.681         0.000         0.000         0.000         0.000
  35                           2.610         0.000         0.000         0.000         0.000
  36                          12.547         0.000         0.000         0.000         0.000
  37                           3.640         0.000         0.000         0.000         0.000
  38                           2.537         0.000         0.000         0.000         0.000
  39                           2.885         0.000         0.000         0.000         0.000
  40                           4.570         0.000         0.000         0.000         0.000
  41                           1.783         0.000         0.000         0.000         0.000
  42                           2.048         0.000         0.000         0.000         0.000
  43                           0.411         0.000         0.000         0.000         0.000
  44                          24.335         0.000         0.000         0.000         0.000
  45                           1.030         0.000         0.000         0.000         0.000
  46                           4.622         0.000         0.000         0.000         0.000
  47                           1.099         0.000         0.000         0.000         0.000
  48                           2.428         0.000         0.000         0.000         0.000
  49                           1.948         0.000         0.000         0.000         0.000
  50                           3.429         0.000         0.000         0.000         0.000
  51                           3.625         0.000         0.000         0.000         0.000
  52                           1.948         0.000         0.000         0.000         0.000
  53                           2.326         0.000         0.000         0.000         0.000
  54                           0.853         0.000         0.000         0.000         0.000
  55                           1.691         0.000         0.000         0.000         0.000
  56                           4.972         0.000         0.000         0.000         0.000
  57                           3.972         0.000         0.000         0.000         0.000
  58                           1.039         0.000         0.000         0.000         0.000
  59                           0.862         0.000         0.000         0.000         0.000
  60                           2.126         0.000         0.000         0.000         0.000
  61                          10.911         0.000         0.000         0.000         0.000
  62                          11.357         0.000         0.000         0.000         0.000
  63                           0.978         0.000         0.000         0.000         0.000
  64                           1.177         0.000         0.000         0.000         0.000
  65                           1.615         0.000         0.000         0.000         0.000
  ------------------------------------------------------------------------------------------
  System                     315.632         0.000         0.000         0.000         0.000
  
  
  ******************
  Node Depth Summary
  ******************
  
  ---------------------------------------------------------------------------------
                                 Average  Maximum  Maximum  Time of Max    Reported
                                   Depth    Depth      HGL   Occurrence   Max Depth
  Node                 Type       Meters   Meters   Meters  days hr:min      Meters
  ---------------------------------------------------------------------------------
  WS01000070           JUNCTION     0.00     0.00     0.00     0  00:00        0.00
  WS01000323           JUNCTION     0.00     0.00     0.00     0  00:00        0.00
  WS01000533           JUNCTION     0.00     0.00     6.86     0  00:00        0.00
  WS01005172           JUNCTION     0.00     0.00     0.00     0  00:00        0.00
  WS01005181           JUNCTION     0.00     0.00     0.00     0  00:00        0.00
  WS01009841           JUNCTION     0.00     0.00     0.00     0  00:00        0.00
  WS02000078           JUNCTION     0.00     0.00     0.00     0  00:00        0.00
  WS02000112           JUNCTION     0.00     0.00     0.00     0  00:00        0.00
  WS02000136           JUNCTION     0.00     0.00     0.00     0  00:00        0.00
  WS02001211           JUNCTION     0.41     0.45     5.29     0  03:05        0.45
  WS02001212           JUNCTION     0.34     0.39     5.19     0  03:04        0.39
  WS02001213           JUNCTION     0.44     0.50     5.20     0  03:04        0.50
  WS02003059           JUNCTION     0.39     0.49     5.14     0  03:03        0.49
  WS02003060           JUNCTION     0.44     0.57     5.12     0  03:02        0.56
  WS02003066           JUNCTION     0.16     0.27     5.57     0  03:23        0.26
  WS02003067           JUNCTION     0.27     0.45     5.77     0  03:22        0.45
  WS02003071           JUNCTION     0.50     0.62     5.02     0  03:02        0.62
  WS02003072           JUNCTION     0.42     0.54     4.91     0  03:05        0.54
  WS02003073           JUNCTION     0.51     0.66     4.90     0  03:25        0.64
  WS02003076           JUNCTION     0.46     0.62     4.85     0  03:31        0.62
  WS02003077           JUNCTION     0.11     0.14     5.15     0  03:14        0.14
  WS02003078           JUNCTION     0.03     0.05     6.95     0  03:06        0.05
  WS02003079           JUNCTION     0.09     0.13     7.04     0  03:06        0.13
  WS02003080           JUNCTION     0.19     0.25     5.28     0  03:15        0.25
  WS02003081           JUNCTION     0.24     0.31     5.35     0  03:15        0.31
  WS02003082           JUNCTION     0.23     0.31     5.39     0  03:15        0.31
  WS02003083           JUNCTION     0.26     0.34     5.43     0  03:14        0.34
  WS02003084           JUNCTION     0.26     0.35     5.45     0  03:14        0.35
  WS02003085           JUNCTION     0.20     0.28     5.45     0  03:14        0.28
  WS02003086           JUNCTION     0.22     0.30     5.50     0  03:13        0.30
  WS02003087           JUNCTION     0.24     0.32     5.54     0  03:13        0.32
  WS02003088           JUNCTION     0.20     0.28     5.57     0  03:12        0.28
  WS02003089           JUNCTION     0.15     0.21     5.67     0  03:12        0.21
  WS02003090           JUNCTION     0.19     0.25     5.72     0  03:11        0.25
  WS02003091           JUNCTION     0.11     0.15     5.95     0  03:13        0.15
  WS02003092           JUNCTION     0.01     0.01     7.65     0  01:24        0.01
  WS02003093           JUNCTION     0.02     0.02     7.36     0  01:53        0.02
  WS02003094           JUNCTION     0.09     0.13     7.35     0  03:01        0.13
  WS02003098           JUNCTION     0.05     0.08     7.25     0  03:03        0.08
  WS02003099           JUNCTION     0.11     0.15     7.19     0  03:04        0.15
  WS02003102           JUNCTION     0.09     0.14     7.17     0  03:03        0.14
  WS02003103           JUNCTION     0.11     0.16     7.13     0  03:04        0.16
  WS02003104           JUNCTION     0.11     0.15     7.11     0  03:05        0.15
  WS02003106           JUNCTION     0.11     0.15     7.08     0  03:05        0.15
  WS02003110           JUNCTION     0.11     0.16     7.41     0  03:06        0.15
  WS02003111           JUNCTION     0.10     0.15     7.24     0  03:06        0.15
  WS02003115           JUNCTION     0.13     0.19     7.09     0  03:05        0.19
  WS02003116           JUNCTION     0.16     0.22     6.93     0  03:06        0.22
  WS02003118           JUNCTION     0.14     0.19     6.81     0  03:06        0.19
  WS02003122           JUNCTION     0.20     0.28     6.65     0  03:08        0.28
  WS02003123           JUNCTION     0.13     0.21     6.65     0  03:08        0.21
  WS02003126           JUNCTION     0.07     0.13     6.65     0  03:08        0.13
  WS02003187           JUNCTION     0.21     0.31     6.64     0  03:08        0.31
  WS02003188           JUNCTION     0.27     0.36     6.62     0  03:09        0.36
  WS02003190           JUNCTION     0.26     0.35     6.60     0  03:09        0.35
  WS02003193           JUNCTION     0.25     0.34     6.58     0  03:09        0.34
  WS02003195           JUNCTION     0.24     0.33     6.55     0  03:10        0.33
  WS02003196           JUNCTION     0.26     0.35     6.53     0  03:10        0.35
  WS02003198           JUNCTION     0.25     0.33     6.50     0  03:10        0.33
  WS02003200           JUNCTION     0.17     0.22     6.38     0  03:13        0.22
  WS02003201           JUNCTION     0.16     0.22     6.36     0  03:13        0.22
  WS02003202           JUNCTION     0.17     0.23     6.29     0  03:13        0.23
  WS02003203           JUNCTION     0.11     0.15     6.15     0  03:13        0.15
  WS02003215           JUNCTION     0.12     0.17     7.03     0  03:05        0.17
  WS02004050           JUNCTION     0.31     0.40     4.62     0  03:06        0.39
  WS02004053           JUNCTION     0.00     0.00     0.00     0  00:00        0.00
  WS02004136           JUNCTION     0.17     0.18     6.91     0  02:10        0.18
  WS02004139           JUNCTION     0.35     0.37     5.33     0  03:06        0.37
  WS02004401           JUNCTION     0.29     0.47     6.47     0  03:19        0.46
  WS02004402           JUNCTION     0.29     0.47     6.43     0  03:19        0.47
  WS02004403           JUNCTION     0.27     0.46     6.39     0  03:19        0.46
  WS02004404           JUNCTION     0.35     0.55     6.40     0  03:20        0.54
  WS02004405           JUNCTION     0.36     0.54     6.38     0  03:20        0.54
  WS02004406           JUNCTION     0.33     0.52     6.35     0  02:58        0.51
  WS02004407           JUNCTION     0.31     0.49     6.29     0  02:59        0.49
  WS02004409           JUNCTION     0.30     0.48     6.25     0  02:59        0.47
  WS02004410           JUNCTION     0.29     0.47     6.19     0  02:59        0.47
  WS02004411           JUNCTION     0.27     0.43     6.11     0  03:00        0.43
  WS02004412           JUNCTION     0.23     0.38     6.02     0  03:00        0.37
  WS02004413           JUNCTION     0.23     0.39     5.86     0  03:01        0.39
  WS02004997           JUNCTION     3.86     6.31     7.92     0  03:00        6.25
  WS02005122           JUNCTION     0.06     0.09     9.61     0  03:01        0.09
  WS02005123           JUNCTION     0.05     0.08     9.54     0  03:01        0.08
  WS02005124           JUNCTION     0.05     0.07     9.34     0  03:01        0.07
  WS02005126           JUNCTION     0.08     0.12     9.22     0  03:01        0.12
  WS02005127           JUNCTION     0.08     0.11     9.14     0  03:02        0.11
  WS02005129           JUNCTION     0.08     0.11     9.04     0  03:01        0.11
  WS02005131           JUNCTION     0.09     0.13     8.89     0  03:02        0.13
  WS02005132           JUNCTION     0.11     0.17     8.81     0  03:03        0.17
  WS02005133           JUNCTION     0.11     0.15     8.76     0  03:03        0.15
  WS02005135           JUNCTION     0.10     0.14     8.70     0  03:03        0.14
  WS02005137           JUNCTION     0.12     0.18     8.60     0  03:04        0.18
  WS02005138           JUNCTION     0.14     0.19     8.54     0  03:04        0.19
  WS02005140           JUNCTION     0.10     0.14     8.46     0  03:05        0.14
  WS02005142           JUNCTION     0.13     0.18     8.34     0  03:03        0.18
  WS02005144           JUNCTION     0.12     0.17     8.22     0  03:04        0.17
  WS02005145           JUNCTION     0.16     0.22     8.12     0  03:04        0.22
  WS02005147           JUNCTION     0.12     0.17     8.04     0  03:05        0.17
  WS02005152           JUNCTION     0.13     0.18     7.90     0  03:05        0.18
  WS02005154           JUNCTION     0.10     0.14     7.78     0  03:05        0.14
  WS02005155           JUNCTION     0.14     0.19     7.50     0  03:05        0.19
  WS02005162           JUNCTION     0.11     0.14     8.14     0  03:04        0.14
  WS02005163           JUNCTION     0.12     0.15     8.19     0  03:04        0.15
  WS02005164           JUNCTION     0.11     0.14     8.22     0  03:03        0.14
  WS02005165           JUNCTION     0.09     0.11     8.29     0  03:04        0.11
  WS02005166           JUNCTION     0.09     0.11     8.38     0  03:03        0.11
  WS02005167           JUNCTION     0.11     0.14     8.44     0  03:02        0.14
  WS02005170           JUNCTION     0.08     0.10     8.50     0  03:03        0.10
  WS02005171           JUNCTION     0.08     0.10     8.57     0  03:02        0.10
  WS02005175           JUNCTION     0.08     0.10     8.67     0  03:01        0.10
  WS02005176           JUNCTION     0.07     0.09     8.71     0  03:04        0.09
  WS02005180           JUNCTION     0.08     0.11     8.76     0  03:03        0.11
  WS02005181           JUNCTION     0.07     0.09     8.79     0  03:03        0.09
  WS02005183           JUNCTION     0.05     0.06     8.92     0  03:02        0.06
  WS02005184           JUNCTION     0.05     0.08     8.99     0  03:01        0.08
  WS02005185           JUNCTION     0.04     0.06     9.08     0  03:01        0.06
  WS02005186           JUNCTION     0.04     0.07     9.18     0  03:01        0.07
  WS02005188           JUNCTION     0.12     0.19     8.13     0  02:50        0.19
  WS02005191           JUNCTION     0.16     0.24     8.14     0  02:52        0.23
  WS02005192           JUNCTION     0.17     0.25     8.12     0  03:10        0.25
  WS02005193           JUNCTION     0.17     0.29     8.11     0  03:09        0.29
  WS02005196           JUNCTION     0.17     0.26     8.11     0  02:54        0.26
  WS02006109           JUNCTION     0.34     0.57     7.19     0  03:17        0.57
  WS02006110           JUNCTION     0.32     0.52     7.12     0  02:56        0.52
  WS02006111           JUNCTION     0.16     0.29     6.87     0  02:57        0.29
  WS02006112           JUNCTION     0.31     0.51     6.63     0  03:18        0.51
  WS02006113           JUNCTION     0.27     0.46     7.05     0  02:57        0.45
  WS02006115           JUNCTION     0.27     0.46     6.56     0  03:18        0.46
  WS02006116           JUNCTION     0.29     0.48     6.52     0  03:19        0.48
  WS02006183           JUNCTION     0.00     0.00     0.00     0  00:00        0.00
  WS02006228           JUNCTION     0.34     0.59     7.24     0  03:17        0.59
  WS02006229           JUNCTION     0.31     0.57     7.26     0  03:17        0.57
  WS02006230           JUNCTION     0.30     0.57     7.32     0  03:16        0.57
  WS02006231           JUNCTION     0.23     0.46     7.36     0  03:16        0.46
  WS02006232           JUNCTION     0.22     0.43     7.46     0  03:15        0.43
  WS02006234           JUNCTION     0.22     0.43     7.59     0  03:15        0.42
  WS02006235           JUNCTION     0.27     0.50     7.67     0  03:16        0.49
  WS02006238           JUNCTION     0.27     0.51     7.69     0  03:16        0.51
  WS02006239           JUNCTION     0.28     0.50     7.71     0  03:16        0.50
  WS02006242           JUNCTION     0.27     0.48     7.78     0  02:55        0.48
  WS02006240           JUNCTION     0.23     0.44     7.73     0  02:55        0.44
  WS02006243           JUNCTION     0.20     0.38     7.80     0  02:55        0.38
  WS02006245           JUNCTION     0.20     0.37     7.86     0  02:55        0.37
  WS02006247           JUNCTION     0.22     0.40     7.91     0  02:55        0.40
  WS02006248           JUNCTION     0.18     0.35     7.94     0  02:54        0.35
  WS02006249           JUNCTION     0.21     0.38     7.98     0  02:54        0.38
  WS02006251           JUNCTION     0.20     0.38     8.05     0  02:52        0.38
  WS02006253           JUNCTION     0.15     0.30     8.10     0  02:52        0.30
  WS02618401           JUNCTION     0.00     0.00     0.00     0  00:00        0.00
  WS8802               JUNCTION     0.00     0.00     4.38     0  00:00        0.00
  WSA1649              JUNCTION     0.00     0.00     0.00     0  00:00        0.00
  WSF200               JUNCTION     0.15     0.25     5.35     0  03:23        0.24
  XR-Inflow            JUNCTION     3.69     6.18     7.99     0  03:00        6.10
  WS02004114           JUNCTION     3.85     6.26     7.86     0  03:00        6.23
  outfall-24           OUTFALL      0.04     0.09     5.59     0  03:00        0.09
  outfall-2            OUTFALL      0.00     0.00     7.00     0  00:00        0.00
  outfall-5            OUTFALL      0.00     0.00     7.67     0  00:00        0.00
  outfall-8            OUTFALL      0.00     0.00     8.00     0  00:00        0.00
  outfall-14           OUTFALL      0.00     0.00     7.66     0  00:00        0.00
  outfall-16           OUTFALL      0.00     0.00     8.39     0  00:00        0.00
  outfall-17           OUTFALL      0.00     0.00     8.15     0  00:00        0.00
  outfall-27           OUTFALL      0.00     0.00     7.90     0  00:00        0.00
  outfall-28           OUTFALL      0.00     0.00     7.30     0  00:00        0.00
  67                   OUTFALL      0.00     0.00    10.20     0  00:00        0.00
  12                   OUTFALL      0.31     0.39     0.39     0  03:07        0.39
  XR-storage           STORAGE      4.93     7.31     7.81     0  03:00        7.31
  CC-storage           STORAGE      1.81     3.03     6.21     0  02:47        3.02
  JK-storage           STORAGE      1.78     3.02     6.02     0  02:19        3.02
  
  
  *******************
  Node Inflow Summary
  *******************
  
  -------------------------------------------------------------------------------------------------
                                  Maximum  Maximum                  Lateral       Total        Flow
                                  Lateral    Total  Time of Max      Inflow      Inflow     Balance
                                   Inflow   Inflow   Occurrence      Volume      Volume       Error
  Node                 Type           MLD      MLD  days hr:min    10^6 ltr    10^6 ltr     Percent
  -------------------------------------------------------------------------------------------------
  WS01000070           JUNCTION      0.00     0.00     0  00:00           0           0       0.000 ltr
  WS01000323           JUNCTION      0.00     0.00     0  00:00           0           0       0.000 ltr
  WS01000533           JUNCTION      0.00     0.00     0  00:00           0           0       0.000 ltr
  WS01005172           JUNCTION      0.00     0.00     0  00:00           0           0       0.000 ltr
  WS01005181           JUNCTION      0.00     0.00     0  00:00           0           0       0.000 ltr
  WS01009841           JUNCTION      0.00     0.00     0  00:00           0           0       0.000 ltr
  WS02000078           JUNCTION      0.00     0.00     0  00:00           0           0       0.000 ltr
  WS02000112           JUNCTION      0.00     0.00     0  00:00           0           0       0.000 ltr
  WS02000136           JUNCTION      0.00     0.00     0  00:00           0           0       0.000 ltr
  WS02001211           JUNCTION      0.25    34.42     0  02:31      0.0407        4.66       0.552
  WS02001212           JUNCTION      0.21    34.53     0  02:32      0.0346        4.67       0.309
  WS02001213           JUNCTION      0.30    34.50     0  03:08      0.0489         4.7       0.424
  WS02003059           JUNCTION      0.23    35.06     0  03:08      0.0378        4.72       0.520
  WS02003060           JUNCTION      0.16    78.56     0  03:23      0.0252        7.18       0.516
  WS02003066           JUNCTION      0.08    54.11     0  03:23      0.0122        2.44       0.171
  WS02003067           JUNCTION      0.26    48.47     0  03:01      0.0395        2.44       0.354
  WS02003071           JUNCTION      0.35    76.57     0  03:02      0.0538        7.19       0.542
  WS02003072           JUNCTION      0.24    76.39     0  03:03      0.0382        7.19       0.370
  WS02003073           JUNCTION      0.07    88.54     0  03:05     0.00978        8.11       0.302
  WS02003076           JUNCTION      0.72    95.81     0  03:25        0.12        8.21       0.240
  WS02003077           JUNCTION      0.04    13.67     0  03:13      0.0059       0.937       0.190
  WS02003078           JUNCTION      0.03     3.91     0  03:06     0.00419       0.192      -0.116
  WS02003079           JUNCTION      0.04     3.34     0  03:05     0.00561       0.188       0.407
  WS02003080           JUNCTION      0.08    10.89     0  03:15      0.0113       0.742       0.436
  WS02003081           JUNCTION      0.03    10.83     0  03:15     0.00406       0.735       0.582
  WS02003082           JUNCTION      0.05    10.82     0  03:14     0.00692       0.735       0.547
  WS02003083           JUNCTION      0.02    10.80     0  03:14      0.0027       0.733       0.563
  WS02003084           JUNCTION      0.06    10.80     0  03:13     0.00885       0.733       0.383
  WS02003085           JUNCTION      0.02    10.77     0  03:13     0.00307       0.726       0.282
  WS02003086           JUNCTION      0.04    10.77     0  03:13     0.00599       0.726       0.414
  WS02003087           JUNCTION      0.06    10.76     0  03:12     0.00824       0.723       0.463
  WS02003088           JUNCTION      0.07    10.73     0  03:12      0.0105       0.717       0.352
  WS02003089           JUNCTION      0.08    10.68     0  03:12      0.0113       0.708       0.226
  WS02003090           JUNCTION      0.04    10.62     0  03:11     0.00647       0.699       0.244
  WS02003091           JUNCTION      0.01    10.70     0  03:13     0.00171       0.693       0.098
  WS02003092           JUNCTION      0.07     0.07     0  01:00     0.00989     0.00989       0.393
  WS02003093           JUNCTION      0.02     0.09     0  01:24     0.00306      0.0129       1.004
  WS02003094           JUNCTION      1.85     1.92     0  03:01      0.0827      0.0955       1.340
  WS02003098           JUNCTION      0.02     1.87     0  03:02     0.00293      0.0972       0.728
  WS02003099           JUNCTION      0.07     1.90     0  03:03      0.0109       0.107       1.591
  WS02003102           JUNCTION      1.65     3.32     0  03:01      0.0686       0.174       0.759
  WS02003103           JUNCTION      0.02     3.28     0  03:03     0.00239       0.175       0.569
  WS02003104           JUNCTION      0.02     3.28     0  03:04     0.00302       0.177       0.474
  WS02003106           JUNCTION      0.05     3.32     0  03:05     0.00728       0.184       0.606
  WS02003110           JUNCTION      0.06     8.07     0  03:05     0.00906       0.467       0.135
  WS02003111           JUNCTION      0.02     7.85     0  03:06      0.0029       0.469       0.128
  WS02003115           JUNCTION      0.40     8.08     0  03:05      0.0228       0.492       0.128
  WS02003116           JUNCTION      0.08     8.20     0  03:06      0.0118       0.512       0.267
  WS02003118           JUNCTION      0.97     8.90     0  03:05      0.0441       0.554       0.326
  WS02003122           JUNCTION      0.07     9.03     0  03:06      0.0101       0.581       0.461
  WS02003123           JUNCTION      0.06     0.37     0  01:31      0.0093       0.019       2.004
  WS02003126           JUNCTION      0.03     0.06     0  03:02     0.00529     0.00539       0.653
  WS02003187           JUNCTION      0.06     8.98     0  03:07     0.00906       0.583       0.411
  WS02003188           JUNCTION      0.45     9.25     0  03:07      0.0217       0.603       0.684
  WS02003190           JUNCTION      0.06     9.27     0  03:08     0.00956       0.608       0.638
  WS02003193           JUNCTION      0.86     9.77     0  03:08      0.0346       0.639       0.632
  WS02003195           JUNCTION      0.03     9.77     0  03:09      0.0053        0.64       0.643
  WS02003196           JUNCTION      0.02     9.78     0  03:10     0.00301       0.639       0.690
  WS02003198           JUNCTION      1.07    10.46     0  03:09      0.0456        0.68       0.814
  WS02003200           JUNCTION      0.07    10.51     0  03:10      0.0107       0.685       0.347
  WS02003201           JUNCTION      0.01    10.52     0  03:11     0.00183       0.685       0.132
  WS02003202           JUNCTION      0.02    10.54     0  03:11      0.0031       0.687       0.253
  WS02003203           JUNCTION      0.05    10.88     0  03:14     0.00692       0.692       0.112
  WS02003215           JUNCTION      0.06     8.13     0  03:05     0.00945         0.5       0.109
  WS02004050           JUNCTION      0.72   106.50     0  03:06       0.119        8.31       0.706
  WS02004053           JUNCTION      0.00     0.00     0  00:00           0           0       0.000 ltr
  WS02004136           JUNCTION      0.44    32.92     0  01:54      0.0703        4.57       0.072
  WS02004139           JUNCTION      0.38    33.50     0  02:05      0.0619        4.63       0.375
  WS02004401           JUNCTION      0.05    42.37     0  03:18     0.00897        1.97       0.274
  WS02004402           JUNCTION      0.22    42.07     0  03:18      0.0335        1.99       0.259
  WS02004403           JUNCTION      0.23    41.91     0  02:57      0.0349        2.02       0.217
  WS02004404           JUNCTION      0.24    41.68     0  03:18      0.0365        2.06       0.231
  WS02004405           JUNCTION      1.15    41.77     0  02:58      0.0533         2.1       0.327
  WS02004406           JUNCTION      1.81    43.33     0  02:58      0.0929        2.19       0.485
  WS02004407           JUNCTION      0.11    42.77     0  02:58      0.0171         2.2       0.448
  WS02004409           JUNCTION      1.37    43.25     0  02:59      0.0829        2.27       0.391
  WS02004410           JUNCTION      0.15    43.47     0  02:59      0.0226        2.28       0.395
  WS02004411           JUNCTION      0.25    43.92     0  03:00      0.0379        2.31       0.350
  WS02004412           JUNCTION      1.94    46.63     0  03:00      0.0888        2.39       0.286
  WS02004413           JUNCTION      0.11    47.44     0  03:00      0.0172         2.4       0.262
  WS02004997           JUNCTION      0.42    51.63     0  03:00      0.0693        5.22       0.849
  WS02005122           JUNCTION      1.18     1.18     0  03:01      0.0535      0.0535       0.180
  WS02005123           JUNCTION      0.06     1.23     0  03:01     0.00977      0.0631       0.238
  WS02005124           JUNCTION      0.04     1.26     0  03:01     0.00611      0.0691       0.349
  WS02005126           JUNCTION      1.05     2.26     0  03:01      0.0487       0.118       0.441
  WS02005127           JUNCTION      0.05     2.30     0  03:02     0.00848       0.126       0.383
  WS02005129           JUNCTION      1.22     3.42     0  03:01      0.0517       0.177       0.288
  WS02005131           JUNCTION      0.04     3.46     0  03:02     0.00682       0.183       0.385
  WS02005132           JUNCTION      0.05     3.49     0  03:02     0.00808        0.19       0.542
  WS02005133           JUNCTION      0.06     3.53     0  03:03        0.01       0.199       0.461
  WS02005135           JUNCTION      1.77     5.05     0  03:03      0.0781       0.277       0.273
  WS02005137           JUNCTION      0.04     5.09     0  03:03     0.00625       0.282       0.415
  WS02005138           JUNCTION      0.06     5.14     0  03:04      0.0101       0.291       0.511
  WS02005140           JUNCTION      0.06     5.19     0  03:04        0.01         0.3       0.295
  WS02005142           JUNCTION      1.96     6.84     0  03:03      0.0845       0.383       0.321
  WS02005144           JUNCTION      0.06     6.90     0  03:03     0.00927       0.391       0.312
  WS02005145           JUNCTION      0.04     6.93     0  03:04     0.00618       0.396       0.442
  WS02005147           JUNCTION      0.05     6.97     0  03:05     0.00749       0.402       0.277
  WS02005152           JUNCTION      0.06     7.03     0  03:05     0.00981       0.411       0.320
  WS02005154           JUNCTION      0.88     7.69     0  03:04      0.0405        0.45       0.178
  WS02005155           JUNCTION      0.06     7.74     0  03:05        0.01       0.459       0.232
  WS02005162           JUNCTION      0.08     3.16     0  03:04      0.0127       0.268       0.395
  WS02005163           JUNCTION      0.13     3.10     0  03:03        0.02       0.256       0.403
  WS02005164           JUNCTION      0.52     3.00     0  03:03      0.0247       0.237       0.403
  WS02005165           JUNCTION      0.11     2.58     0  03:03      0.0168       0.213       0.349
  WS02005166           JUNCTION      0.11     2.49     0  03:02      0.0167       0.197       0.374
  WS02005167           JUNCTION      0.50     2.41     0  03:02      0.0255       0.181       0.548
  WS02005170           JUNCTION      0.09     1.99     0  03:02       0.013       0.156       0.399
  WS02005171           JUNCTION      0.02     1.92     0  03:01     0.00326       0.144       0.427
  WS02005175           JUNCTION      0.76     1.92     0  03:01      0.0307       0.141       0.352
  WS02005176           JUNCTION      0.08     1.23     0  03:03      0.0123       0.111       0.493
  WS02005180           JUNCTION      0.11     1.17     0  03:03      0.0172      0.0994       0.690
  WS02005181           JUNCTION      0.13     1.10     0  03:02      0.0203      0.0826       0.528
  WS02005183           JUNCTION      0.03     1.00     0  03:01     0.00433      0.0626       0.318
  WS02005184           JUNCTION      0.09     0.98     0  03:01       0.013      0.0584       0.346
  WS02005185           JUNCTION      0.07     0.92     0  03:01      0.0111      0.0455       0.241
  WS02005186           JUNCTION      0.87     0.87     0  03:01      0.0345      0.0345       0.154
  WS02005188           JUNCTION      0.03     3.18     0  03:05     0.00497       0.273       0.270
  WS02005191           JUNCTION      0.06     4.17     0  02:52     0.00844       0.283       0.393
  WS02005192           JUNCTION      1.96     5.67     0  02:56      0.0925       0.377       0.334
  WS02005193           JUNCTION      0.09     7.07     0  02:56      0.0146       0.419       0.299
  WS02005196           JUNCTION      0.12     6.12     0  02:57       0.019       0.398       0.335
  WS02006109           JUNCTION      0.08    41.19     0  03:17      0.0135        1.76       0.330
  WS02006110           JUNCTION      0.08    41.35     0  03:17      0.0132        1.77       0.320
  WS02006111           JUNCTION      0.24    43.42     0  02:57      0.0366         1.9       0.117
  WS02006112           JUNCTION      0.18    43.29     0  02:57      0.0273        1.92       0.259
  WS02006113           JUNCTION      2.05    42.93     0  02:56       0.103        1.87       0.236
  WS02006115           JUNCTION      0.08    42.69     0  03:18      0.0134        1.93       0.281
  WS02006116           JUNCTION      0.24    42.40     0  03:18       0.036        1.96       0.287
  WS02006183           JUNCTION      0.00     0.00     0  00:00           0           0       0.000 ltr
  WS02006228           JUNCTION      1.93    41.36     0  03:16       0.118        1.75       0.235
  WS02006229           JUNCTION      0.13    39.90     0  03:16        0.02        1.64       0.184
  WS02006230           JUNCTION      0.07    40.37     0  03:16      0.0116        1.62       0.182
  WS02006231           JUNCTION      0.13    40.68     0  03:15      0.0205        1.61       0.098
  WS02006232           JUNCTION      1.41    40.50     0  03:15      0.0657        1.59       0.108
  WS02006234           JUNCTION      0.14    39.83     0  03:16      0.0216        1.53       0.135
  WS02006235           JUNCTION      0.14    39.77     0  03:16      0.0223        1.51       0.049
  WS02006238           JUNCTION      0.15    39.90     0  03:16      0.0235        1.49       0.126
  WS02006239           JUNCTION      0.11    26.23     0  02:56      0.0174         1.1       0.250
  WS02006242           JUNCTION      0.08    23.12     0  02:55      0.0129        1.06       0.328
  WS02006240           JUNCTION      0.06    23.72     0  02:56     0.00992        1.07       0.192
  WS02006243           JUNCTION      0.17    23.20     0  02:54      0.0269        1.05       0.166
  WS02006245           JUNCTION      0.07    23.19     0  02:55      0.0113        1.03       0.145
  WS02006247           JUNCTION      1.03    23.14     0  02:54      0.0616        1.02       0.177
  WS02006248           JUNCTION      0.12    22.36     0  02:54      0.0192       0.956       0.090
  WS02006249           JUNCTION      0.19    22.44     0  02:53      0.0286       0.939       0.237
  WS02006251           JUNCTION      0.56    22.60     0  02:52      0.0285       0.912       0.154
  WS02006253           JUNCTION      0.11    22.27     0  03:08      0.0173       0.895       0.034
  WS02618401           JUNCTION      0.00     0.00     0  00:00           0           0       0.000 ltr
  WS8802               JUNCTION      0.00     0.00     0  00:00           0           0       0.000 ltr
  WSA1649              JUNCTION      0.00     0.00     0  00:00           0           0       0.000 ltr
  WSF200               JUNCTION      0.14    48.44     0  03:01      0.0216        2.46       0.059
  XR-Inflow            JUNCTION     51.22    51.22     0  03:00        5.17        5.17       0.448
  WS02004114           JUNCTION      0.57    52.17     0  03:00      0.0916        5.27       0.430
  outfall-24           OUTFALL       0.00    19.63     0  03:00           0       0.637       0.000
  outfall-2            OUTFALL       0.00     0.00     0  00:00           0           0       0.000 ltr
  outfall-5            OUTFALL       0.00     0.00     0  00:00           0           0       0.000 ltr
  outfall-8            OUTFALL       0.00     0.00     0  00:00           0           0       0.000 ltr
  outfall-14           OUTFALL       0.00     0.00     0  00:00           0           0       0.000 ltr
  outfall-16           OUTFALL       0.00     0.00     0  00:00           0           0       0.000 ltr
  outfall-17           OUTFALL       0.00     0.00     0  00:00           0           0       0.000 ltr
  outfall-27           OUTFALL       0.00     0.00     0  00:00           0           0       0.000 ltr
  outfall-28           OUTFALL       0.00     0.00     0  00:00           0           0       0.000 ltr
  67                   OUTFALL       0.00     0.00     0  00:00           0           0       0.000 ltr
  12                   OUTFALL       0.00    90.01     0  03:07           0        8.25       0.000
  XR-storage           STORAGE       0.00    52.17     0  03:00           0        5.24       0.825
  CC-storage           STORAGE       6.90     6.90     0  03:01       0.523       0.523       0.001
  JK-storage           STORAGE       6.58     6.58     0  03:01       0.424       0.424       0.001
  
  
  **********************
  Node Surcharge Summary
  **********************
  
  Surcharging occurs when water rises above the top of the highest conduit.
  ---------------------------------------------------------------------
                                               Max. Height   Min. Depth
                                   Hours       Above Crown    Below Rim
  Node                 Type      Surcharged         Meters       Meters
  ---------------------------------------------------------------------
  WS01000070           JUNCTION        4.00          0.000        0.000
  WS01000323           JUNCTION        4.00          0.000        0.000
  WS01000533           JUNCTION        4.00          0.000        2.147
  WS01005172           JUNCTION        4.00          0.000        0.000
  WS01005181           JUNCTION        4.00          0.000        0.000
  WS01009841           JUNCTION        4.00          0.000        0.000
  WS02000078           JUNCTION        4.00          0.000        0.000
  WS02000112           JUNCTION        4.00          0.000        0.000
  WS02000136           JUNCTION        4.00          0.000        0.000
  WS02004053           JUNCTION        4.00          0.000        0.000
  WS02004997           JUNCTION        1.31          5.412        0.588
  WS02006183           JUNCTION        4.00          0.000        0.000
  WS02618401           JUNCTION        4.00          0.000        0.000
  WS8802               JUNCTION        4.00          0.000        4.942
  WSA1649              JUNCTION        4.00          0.000        0.000
  XR-Inflow            JUNCTION        1.28          5.281        0.369
  WS02004114           JUNCTION        1.31          5.356        1.159
  
  
  *********************
  Node Flooding Summary
  *********************
  
  No nodes were flooded.
  
  
  **********************
  Storage Volume Summary
  **********************
  
  --------------------------------------------------------------------------------------------------
                         Average     Avg  Evap Exfil       Maximum     Max    Time of Max    Maximum
                          Volume    Pcnt  Pcnt  Pcnt        Volume    Pcnt     Occurrence    Outflow
  Storage Unit           1000 m3    Full  Loss  Loss       1000 m3    Full    days hr:min        MLD
  --------------------------------------------------------------------------------------------------
  XR-storage               0.040      64     0     0         0.059      95       0  03:00      52.11
  CC-storage               0.051      32     0     0         0.086      54       0  02:47      17.28
  JK-storage               0.050      37     0     0         0.085      63       0  02:19      17.28
  
  
  ***********************
  Outfall Loading Summary
  ***********************
  
  ---------------------------------------------------------------------------------------------------------------------------------
                         Flow       Avg       Max       Total         Total         Total         Total         Total         Total
                         Freq      Flow      Flow      Volume           COD         NH3-N            TN            TP            SS
  Outfall Node           Pcnt       MLD       MLD    10^6 ltr            kg            kg            kg            kg            kg
  ---------------------------------------------------------------------------------------------------------------------------------
  outfall-24            56.08     15.97     19.63       0.637        62.099         0.000         0.000         0.000         0.000
  outfall-2              0.00      0.00      0.00       0.000         0.000         0.000         0.000         0.000         0.000
  outfall-5              0.00      0.00      0.00       0.000         0.000         0.000         0.000         0.000         0.000
  outfall-8              0.00      0.00      0.00       0.000         0.000         0.000         0.000         0.000         0.000
  outfall-14             0.00      0.00      0.00       0.000         0.000         0.000         0.000         0.000         0.000
  outfall-16             0.00      0.00      0.00       0.000         0.000         0.000         0.000         0.000         0.000
  outfall-17             0.00      0.00      0.00       0.000         0.000         0.000         0.000         0.000         0.000
  outfall-27             0.00      0.00      0.00       0.000         0.000         0.000         0.000         0.000         0.000
  outfall-28             0.00      0.00      0.00       0.000         0.000         0.000         0.000         0.000         0.000
  67                     0.00      0.00      0.00       0.000         0.000         0.000         0.000         0.000         0.000
  12                    99.99     60.88     90.01       8.248      1086.658         0.000         0.000         0.000         0.000
  ---------------------------------------------------------------------------------------------------------------------------------
  System                14.19     76.85    108.05       8.884      1148.757         0.000         0.000         0.000         0.000
  
  
  ********************
  Link Flow Summary
  ********************
  
  -----------------------------------------------------------------------------
                                 Maximum  Time of Max   Maximum    Max/    Max/
                                  |Flow|   Occurrence   |Veloc|    Full    Full
  Link                 Type          MLD  days hr:min     m/sec    Flow   Depth
  -----------------------------------------------------------------------------
  WSL49                CONDUIT     95.09     0  03:25      1.97    1.18    0.52
  WSL50                CONDUIT     10.89     0  03:16      1.62    0.75    0.32
  WSL51                CONDUIT     10.83     0  03:15      0.97    1.10    0.46
  WSL52                CONDUIT     10.81     0  03:15      0.85    0.50    0.52
  WSL53                CONDUIT     10.79     0  03:14      0.80    1.12    0.54
  WSL54                CONDUIT     10.79     0  03:14      0.73    0.86    0.58
  WSL55                CONDUIT     10.75     0  03:13      0.81    0.28    0.53
  WSL77                CONDUIT     10.76     0  03:13      0.91    0.56    0.49
  WSL78                CONDUIT     10.74     0  03:13      0.84    0.71    0.52
  WSL79                CONDUIT     10.72     0  03:12      0.88    0.37    0.50
  WSL80                CONDUIT     10.68     0  03:12      1.16    0.25    0.40
  WSL81                CONDUIT     10.62     0  03:12      1.25    0.79    0.38
  WSL82                CONDUIT     10.59     0  03:11      1.48    0.14    0.34
  WSL83                CONDUIT     10.69     0  03:13      2.25    0.13    0.25
  WSL84                CONDUIT      8.02     0  03:05      1.36    0.24    0.29
  WSL85                CONDUIT      0.43     0  01:30      0.40    0.01    0.50
  WSL86                CONDUIT      0.09     0  03:18      0.20    0.00    0.35
  WSL122               CONDUIT      9.26     0  03:09      0.63    0.93    0.58
  WSL123               CONDUIT     10.85     0  03:14      1.65    0.40    0.31
  WSL144               CONDUIT      8.95     0  03:08      0.64    0.35    0.56
  WSL145               CONDUIT      9.22     0  03:08      0.61    0.87    0.60
  WSL146               CONDUIT      9.74     0  03:09      0.69    0.71    0.56
  WSL147               CONDUIT      9.76     0  03:10      0.69    0.50    0.56
  WSL148               CONDUIT      9.78     0  03:10      0.69    0.93    0.56
  WSL149               CONDUIT     10.46     0  03:10      0.95    1.37    0.46
  WSL150               CONDUIT     10.51     0  03:11      1.29    0.35    0.37
  WSL151               CONDUIT     10.52     0  03:11      1.30    0.27    0.37
  WSL500               CONDUIT      7.03     0  03:05      1.34    0.23    0.27
  WSL502               CONDUIT      7.69     0  03:05      1.40    0.12    0.28
  WSL508               CONDUIT      3.16     0  03:05      0.71    0.12    0.27
  WSL509               CONDUIT      3.09     0  03:04      0.69    0.14    0.24
  WSL551               CONDUIT      3.42     0  03:02      0.97    0.08    0.20
  WSL553               CONDUIT      3.44     0  03:02      0.74    0.10    0.24
  WSL554               CONDUIT      3.47     0  03:03      0.66    0.18    0.27
  WSL555               CONDUIT      3.53     0  03:04      0.76    0.15    0.25
  WSL1465              CONDUIT     35.93     0  03:30      1.42    0.33    0.52
  WSL1472              CONDUIT     76.18     0  03:03      1.68    0.87    0.48
  WSL1475              CONDUIT    105.79     0  03:06      2.59    1.13    0.36
  WSL1476              CONDUIT     13.60     0  03:14      0.73    0.07    0.50
  WSL1477              CONDUIT      3.89     0  03:06      1.69    0.15    0.15
  WSL1490              CONDUIT     34.32     0  02:32      1.36    0.56    0.42
  WSL1491              CONDUIT     34.22     0  03:08      1.31    0.20    0.44
  WSL1492              CONDUIT     34.84     0  03:08      1.24    0.54    0.49
  WSL1506              CONDUIT      0.07     0  01:24      0.40    0.00    0.02
  WSL1507              CONDUIT      0.09     0  01:53      0.21    0.00    0.09
  WSL1508              CONDUIT      1.86     0  03:02      0.56    0.05    0.13
  WSL1512              CONDUIT      1.85     0  03:03      0.42    0.01    0.12
  WSL1513              CONDUIT      1.89     0  03:04      0.35    0.11    0.18
  WSL1515              CONDUIT     54.04     0  03:23      2.33    0.53    0.29
  WSL1516              CONDUIT      3.51     0  03:06      1.51    0.01    0.15
  WSL1518              CONDUIT      3.27     0  03:03      0.59    0.06    0.19
  WSL1519              CONDUIT      3.28     0  03:05      0.56    0.08    0.19
  WSL1521              CONDUIT      3.31     0  03:05      0.62    0.10    0.18
  WSL1525              CONDUIT      7.83     0  03:06      1.62    0.15    0.25
  WSL1526              CONDUIT      7.81     0  03:06      1.41    0.13    0.28
  WSL1529              CONDUIT      8.08     0  03:05      1.35    0.21    0.29
  WSL1530              CONDUIT      8.20     0  03:06      1.26    0.44    0.41
  WSL1532              CONDUIT      8.88     0  03:06      1.01    0.21    0.39
  WSL1543              CONDUIT      3.27     0  03:04      0.54    0.10    0.20
  WSL1545              CONDUIT      8.93     0  03:07      0.75    0.37    0.49
  WSL1641              CONDUIT      2.99     0  03:03      0.65    0.13    0.24
  WSL1642              CONDUIT      2.57     0  03:04      0.68    0.07    0.21
  WSL1643              CONDUIT      2.49     0  03:03      0.80    0.08    0.18
  WSL1644              CONDUIT      2.41     0  03:02      0.66    0.13    0.21
  WSL1646              CONDUIT      1.98     0  03:03      0.58    0.06    0.20
  WSL1647              CONDUIT      1.92     0  03:02      0.70    0.07    0.17
  WSL1652              CONDUIT      1.22     0  03:04      0.54    0.07    0.19
  WSL1764              CONDUIT      8.14     0  03:06      1.20    0.15    0.32
  WSL1931              CONDUIT      1.17     0  03:03      0.49    0.10    0.20
  WSL1932              CONDUIT      1.09     0  03:03      0.46    0.07    0.20
  WSL1934              CONDUIT      0.99     0  03:02      0.60    0.03    0.15
  WSL1935              CONDUIT      0.97     0  03:01      0.69    0.05    0.14
  WSL1961              CONDUIT     33.14     0  02:05      2.59    0.07    0.28
  WSL1964              CONDUIT     34.18     0  02:31      1.20    0.19    0.34
  WSL2010              CONDUIT     41.71     0  02:57      1.43    0.53    0.46
  WSL2011              CONDUIT     41.49     0  03:18      1.35    0.27    0.50
  WSL2012              CONDUIT     40.74     0  02:58      1.17    0.62    0.54
  WSL2013              CONDUIT     41.70     0  02:58      1.23    1.04    0.53
  WSL2014              CONDUIT     42.67     0  02:58      1.27    0.68    0.50
  WSL2015              CONDUIT     41.96     0  02:59      1.30    0.56    0.48
  WSL2016              CONDUIT     43.34     0  02:59      1.38    0.50    0.47
  WSL2017              CONDUIT     43.72     0  03:00      1.50    0.53    0.45
  WSL2018              CONDUIT     47.35     0  03:00      2.01    0.28    0.38
  WSL2019              CONDUIT     48.26     0  03:01      1.89    0.29    0.41
  WSL2028              CONDUIT     41.90     0  03:18      1.37    0.45    0.47
  WSL2029              CONDUIT     44.73     0  03:00      1.77    0.57    0.40
  WSL2031              CONDUIT      0.91     0  03:01      0.65    0.03    0.14
  WSL2032              CONDUIT      0.86     0  03:01      0.77    0.06    0.16
  WSL2034              CONDUIT      4.12     0  02:52      0.65    0.12    0.33
  WSL2037              CONDUIT      3.99     0  02:56      0.57    0.20    0.40
  WSL2038              CONDUIT      6.01     0  02:57      0.81    0.30    0.42
  WSL2039              CONDUIT     10.27     0  02:55      1.43    0.53    0.49
  WSL2041              CONDUIT      6.99     0  02:56      0.95    0.34    0.45
  WSL2124              CONDUIT      5.05     0  03:03      0.96    0.12    0.27
  WSL2126              CONDUIT      5.09     0  03:04      0.80    0.20    0.31
  WSL2127              CONDUIT      5.14     0  03:04      0.95    0.28    0.27
  WSL2128              CONDUIT      5.19     0  03:05      0.98    0.12    0.27
  WSL2130              CONDUIT      6.84     0  03:03      1.14    0.21    0.29
  WSL2146              CONDUIT      6.89     0  03:04      1.02    0.18    0.32
  WSL2147              CONDUIT      6.93     0  03:05      1.03    0.37    0.32
  WSL2148              CONDUIT      6.98     0  03:05      1.17    0.17    0.29
  WSL2294              CONDUIT     41.28     0  03:17      1.32    1.39    0.68
  WSL2295              CONDUIT     41.55     0  03:17      1.56    1.87    0.59
  WSL2296              CONDUIT     43.13     0  02:57      2.04    0.24    0.50
  WSL2297              CONDUIT     42.61     0  03:18      1.37    0.82    0.49
  WSL2298              CONDUIT     43.21     0  02:57      2.31    1.99    0.45
  WSL2301              CONDUIT     42.21     0  03:18      1.39    0.39    0.47
  WSL2302              CONDUIT     42.31     0  03:18      1.37    0.52    0.47
  WSL2357              CONDUIT      1.17     0  03:01      0.84    0.21    0.28
  WSL2358              CONDUIT      1.22     0  03:01      1.03    0.14    0.25
  WSL2359              CONDUIT      1.25     0  03:01      0.54    0.05    0.19
  WSL2361              CONDUIT      2.25     0  03:02      0.77    0.13    0.23
  WSL2362              CONDUIT      2.29     0  03:02      0.80    0.11    0.22
  WSL2441              CONDUIT     41.11     0  03:17      1.37    1.05    0.73
  WSL2442              CONDUIT     39.79     0  03:16      1.53    1.02    0.81
  WSL2443              CONDUIT     40.30     0  03:16      1.72    0.63    0.73
  WSL2444              CONDUIT     40.57     0  03:15      1.87    0.64    0.64
  WSL2446              CONDUIT     39.83     0  03:15      1.88    0.68    0.61
  WSL2447              CONDUIT     39.71     0  03:16      1.75    2.04    0.66
  WSL2448              CONDUIT     39.65     0  03:16      1.59    1.11    0.72
  WSL2449              CONDUIT     27.27     0  02:55      1.26    0.95    0.72
  WSL2450              CONDUIT     26.13     0  02:56      1.24    0.54    0.67
  WSL2451              CONDUIT     23.66     0  02:56      1.17    1.54    0.65
  WSL2452              CONDUIT     23.04     0  02:55      1.26    0.44    0.61
  WSL2454              CONDUIT     23.04     0  02:54      1.48    0.54    0.54
  WSL2478              CONDUIT     23.12     0  02:55      1.29    0.82    0.55
  WSL2479              CONDUIT     22.34     0  02:53      1.26    0.42    0.53
  WSL2480              CONDUIT     22.25     0  02:54      1.27    1.03    0.53
  WSL2482              CONDUIT     22.27     0  02:53      1.24    0.58    0.55
  WSL2484              CONDUIT     22.19     0  02:52      1.83    0.31    0.49
  WSL2493              CONDUIT     39.58     0  03:16      1.35    0.67    0.72
  WSL2867              CONDUIT     48.32     0  03:01      3.26    0.10    0.21
  WSL2868              CONDUIT     48.22     0  03:01      1.67    0.09    0.34
  5                    CONDUIT      1.91     0  03:01      0.76    0.09    0.21
  WSL348               CONDUIT     51.22     0  03:00      1.88    0.47    1.00
  WSL175               CONDUIT     51.63     0  03:00      2.29    1.74    1.00
  WSL1467              CONDUIT     76.27     0  03:02      1.59    0.40    0.49
  WSL1473              CONDUIT     76.41     0  03:03      1.79    0.31    0.49
  XRpipe               CONDUIT     52.17     0  03:00      2.54    0.13    1.00
  8                    CONDUIT      0.00     0  00:00      0.00    0.00    0.00
  19                   CONDUIT      0.00     0  00:00      0.00    0.00    0.00
  17                   CONDUIT      0.00     0  00:00      0.00    0.00    0.00
  4                    CONDUIT      0.00     0  00:00      0.00    0.00    0.00
  outletpipe           CONDUIT     19.63     0  03:00      9.76    0.07    0.18
  11                   CONDUIT      0.00     0  00:00      0.00    0.00    0.00
  20                   CONDUIT      0.00     0  00:00      0.00    0.00    0.00
  1                    CONDUIT      0.00     0  00:00      0.00    0.00    0.00
  28                   CONDUIT      0.00     0  00:00      0.00    0.00    0.00
  30                   CONDUIT      0.00     0  00:00      0.00    0.00    0.00
  2                    CONDUIT     90.01     0  03:07      3.64    0.33    0.39
  XR-Pump-1            PUMP         8.12     0  00:02              1.00
  XR-Pump-3            PUMP         8.12     0  00:09              1.00
  XR-Pump-2            PUMP         8.12     0  00:04              1.00
  XR-Pump-4            PUMP         8.12     0  01:54              1.00
  CC-Pump-1            PUMP        17.28     0  01:05              1.00
  CC-Pump-2            PUMP         0.00     0  00:00              0.00
  JK-Pump-1            PUMP        17.28     0  01:37              1.00
  JK-Pump-2            PUMP         0.00     0  00:00              0.00
  
  
  ***************************
  Flow Classification Summary
  ***************************
  
  -------------------------------------------------------------------------------------
                      Adjusted    ---------- Fraction of Time in Flow Class ---------- 
                       /Actual         Up    Down  Sub   Sup   Up    Down  Norm  Inlet 
  Conduit               Length    Dry  Dry   Dry   Crit  Crit  Crit  Crit  Ltd   Ctrl  
  -------------------------------------------------------------------------------------
  WSL49                   1.00   0.00  0.00  0.00  1.00  0.00  0.00  0.00  0.00  0.00
  WSL50                   1.00   0.00  0.00  0.00  0.07  0.93  0.00  0.00  0.00  0.00
  WSL51                   1.00   0.00  0.00  0.00  1.00  0.00  0.00  0.00  0.01  0.00
  WSL52                   1.00   0.00  0.00  0.00  1.00  0.00  0.00  0.00  0.09  0.00
  WSL53                   1.00   0.00  0.00  0.00  1.00  0.00  0.00  0.00  0.01  0.00
  WSL54                   1.00   0.00  0.00  0.00  1.00  0.00  0.00  0.00  0.00  0.00
  WSL55                   1.00   0.00  0.00  0.00  1.00  0.00  0.00  0.00  0.21  0.00
  WSL77                   1.00   0.00  0.00  0.00  1.00  0.00  0.00  0.00  0.00  0.00
  WSL78                   1.00   0.00  0.00  0.00  1.00  0.00  0.00  0.00  0.00  0.00
  WSL79                   1.00   0.00  0.00  0.00  1.00  0.00  0.00  0.00  0.41  0.00
  WSL80                   1.00   0.00  0.00  0.00  1.00  0.00  0.00  0.00  0.69  0.00
  WSL81                   1.00   0.00  0.00  0.00  1.00  0.00  0.00  0.00  0.00  0.00
  WSL82                   1.00   0.00  0.00  0.00  0.18  0.82  0.00  0.00  0.99  0.00
  WSL83                   1.00   0.00  0.00  0.00  0.00  1.00  0.00  0.00  0.74  0.00
  WSL84                   1.00   0.00  0.00  0.00  0.03  0.97  0.00  0.00  0.04  0.00
  WSL85                   1.00   0.00  0.00  0.00  1.00  0.00  0.00  0.00  0.12  0.00
  WSL86                   1.00   0.00  0.00  0.00  1.00  0.00  0.00  0.00  0.61  0.00
  WSL122                  1.00   0.00  0.00  0.00  1.00  0.00  0.00  0.00  0.00  0.00
  WSL123                  1.00   0.00  0.00  0.00  0.04  0.96  0.00  0.00  0.01  0.00
  WSL144                  1.00   0.00  0.00  0.00  1.00  0.00  0.00  0.00  0.29  0.00
  WSL145                  1.00   0.00  0.00  0.00  1.00  0.00  0.00  0.00  0.01  0.00
  WSL146                  1.00   0.00  0.00  0.00  1.00  0.00  0.00  0.00  0.03  0.00
  WSL147                  1.00   0.00  0.00  0.00  1.00  0.00  0.00  0.00  0.04  0.00
  WSL148                  1.00   0.00  0.00  0.00  1.00  0.00  0.00  0.00  0.00  0.00
  WSL149                  1.00   0.00  0.00  0.00  1.00  0.00  0.00  0.00  0.01  0.00
  WSL150                  1.00   0.00  0.00  0.00  0.29  0.71  0.00  0.00  0.00  0.00
  WSL151                  1.00   0.00  0.00  0.00  0.65  0.35  0.00  0.00  0.13  0.00
  WSL500                  1.00   0.00  0.00  0.00  0.02  0.98  0.00  0.00  0.00  0.00
  WSL502                  1.00   0.00  0.00  0.00  0.02  0.98  0.00  0.00  1.00  0.00
  WSL508                  1.00   0.00  0.00  0.00  1.00  0.00  0.00  0.00  0.05  0.00
  WSL509                  1.00   0.00  0.00  0.00  1.00  0.00  0.00  0.00  0.02  0.00
  WSL551                  1.00   0.00  0.00  0.00  0.37  0.63  0.00  0.00  0.92  0.00
  WSL553                  1.00   0.00  0.00  0.00  1.00  0.00  0.00  0.00  1.00  0.00
  WSL554                  1.00   0.00  0.00  0.00  1.00  0.00  0.00  0.00  0.24  0.00
  WSL555                  1.00   0.00  0.00  0.00  1.00  0.00  0.00  0.00  0.00  0.00
  WSL1465                 1.00   0.00  0.00  0.00  1.00  0.00  0.00  0.00  0.05  0.00
  WSL1472                 1.00   0.00  0.00  0.00  1.00  0.00  0.00  0.00  0.00  0.00
  WSL1475                 1.00   0.00  0.00  0.00  0.18  0.82  0.00  0.00  0.01  0.00
  WSL1476                 1.00   0.00  0.00  0.00  1.00  0.00  0.00  0.00  1.00  0.00
  WSL1477                 1.00   0.00  0.00  0.00  0.00  1.00  0.00  0.00  0.22  0.00
  WSL1490                 1.00   0.00  0.00  0.00  1.00  0.00  0.00  0.00  0.00  0.00
  WSL1491                 1.00   0.00  0.00  0.00  1.00  0.00  0.00  0.00  0.02  0.00
  WSL1492                 1.00   0.00  0.00  0.00  1.00  0.00  0.00  0.00  0.00  0.00
  WSL1506                 1.00   0.00  0.00  0.00  0.99  0.01  0.00  0.00  0.99  0.00
  WSL1507                 1.00   0.00  0.00  0.00  1.00  0.00  0.00  0.00  1.00  0.00
  WSL1508                 1.00   0.00  0.00  0.00  1.00  0.00  0.00  0.00  0.00  0.00
  WSL1512                 1.00   0.00  0.00  0.00  1.00  0.00  0.00  0.00  1.00  0.00
  WSL1513                 1.00   0.00  0.00  0.00  1.00  0.00  0.00  0.00  0.00  0.00
  WSL1515                 1.00   0.00  0.00  0.00  0.07  0.93  0.00  0.00  0.03  0.00
  WSL1516                 1.00   0.00  0.00  0.00  0.00  1.00  0.00  0.00  1.00  0.00
  WSL1518                 1.00   0.00  0.00  0.00  1.00  0.00  0.00  0.00  0.94  0.00
  WSL1519                 1.00   0.00  0.00  0.00  1.00  0.00  0.00  0.00  0.42  0.00
  WSL1521                 1.00   0.00  0.00  0.00  1.00  0.00  0.00  0.00  0.02  0.00
  WSL1525                 1.00   0.00  0.00  0.00  0.00  1.00  0.00  0.00  0.12  0.00
  WSL1526                 1.00   0.00  0.00  0.00  0.01  0.99  0.00  0.00  0.83  0.00
  WSL1529                 1.00   0.00  0.00  0.00  0.01  0.99  0.00  0.00  0.93  0.00
  WSL1530                 1.00   0.00  0.00  0.00  0.29  0.71  0.00  0.00  0.00  0.00
  WSL1532                 1.00   0.00  0.00  0.00  1.00  0.00  0.00  0.00  1.00  0.00
  WSL1543                 1.00   0.00  0.00  0.00  1.00  0.00  0.00  0.00  0.02  0.00
  WSL1545                 1.00   0.00  0.00  0.00  1.00  0.00  0.00  0.00  0.07  0.00
  WSL1641                 1.00   0.00  0.00  0.00  1.00  0.00  0.00  0.00  0.47  0.00
  WSL1642                 1.00   0.00  0.00  0.00  1.00  0.00  0.00  0.00  0.98  0.00
  WSL1643                 1.00   0.00  0.00  0.00  1.00  0.00  0.00  0.00  0.68  0.00
  WSL1644                 1.00   0.00  0.00  0.00  1.00  0.00  0.00  0.00  0.02  0.00
  WSL1646                 1.00   0.00  0.00  0.00  1.00  0.00  0.00  0.00  0.99  0.00
  WSL1647                 1.00   0.00  0.00  0.00  1.00  0.00  0.00  0.00  0.02  0.00
  WSL1652                 1.00   0.00  0.00  0.00  1.00  0.00  0.00  0.00  0.38  0.00
  WSL1764                 1.00   0.00  0.00  0.00  0.20  0.80  0.00  0.00  0.46  0.00
  WSL1931                 1.00   0.00  0.00  0.00  1.00  0.00  0.00  0.00  0.00  0.00
  WSL1932                 1.00   0.00  0.00  0.00  1.00  0.00  0.00  0.00  0.99  0.00
  WSL1934                 1.00   0.00  0.00  0.00  1.00  0.00  0.00  0.00  1.00  0.00
  WSL1935                 1.00   0.00  0.00  0.00  0.96  0.04  0.00  0.00  0.00  0.00
  WSL1961                 1.00   0.00  0.00  0.00  0.00  1.00  0.00  0.00  0.97  0.00
  WSL1964                 1.00   0.00  0.00  0.00  1.00  0.00  0.00  0.00  0.02  0.00
  WSL2010                 1.00   0.00  0.00  0.00  1.00  0.00  0.00  0.00  0.00  0.00
  WSL2011                 1.00   0.00  0.00  0.00  1.00  0.00  0.00  0.00  0.13  0.00
  WSL2012                 1.00   0.00  0.00  0.00  1.00  0.00  0.00  0.00  0.01  0.00
  WSL2013                 1.00   0.00  0.00  0.00  1.00  0.00  0.00  0.00  0.00  0.00
  WSL2014                 1.00   0.00  0.00  0.00  1.00  0.00  0.00  0.00  0.00  0.00
  WSL2015                 1.00   0.00  0.00  0.00  1.00  0.00  0.00  0.00  0.02  0.00
  WSL2016                 1.00   0.00  0.00  0.00  1.00  0.00  0.00  0.00  0.06  0.00
  WSL2017                 1.00   0.00  0.00  0.00  1.00  0.00  0.00  0.00  0.04  0.00
  WSL2018                 1.00   0.00  0.00  0.00  0.01  0.99  0.00  0.00  0.36  0.00
  WSL2019                 1.00   0.00  0.00  0.00  0.19  0.81  0.00  0.00  0.11  0.00
  WSL2028                 1.00   0.00  0.00  0.00  1.00  0.00  0.00  0.00  0.09  0.00
  WSL2029                 1.00   0.00  0.00  0.00  0.45  0.55  0.00  0.00  0.00  0.00
  WSL2031                 1.00   0.00  0.00  0.00  1.00  0.00  0.00  0.00  1.00  0.00
  WSL2032                 1.00   0.00  0.00  0.00  0.38  0.62  0.00  0.00  0.78  0.00
  WSL2034                 1.00   0.00  0.00  0.00  1.00  0.00  0.00  0.00  0.07  0.00
  WSL2037                 1.00   0.00  0.00  0.00  1.00  0.00  0.00  0.00  0.03  0.00
  WSL2038                 1.00   0.00  0.00  0.00  1.00  0.00  0.00  0.00  0.04  0.00
  WSL2039                 1.00   0.00  0.00  0.00  0.49  0.51  0.00  0.00  0.01  0.00
  WSL2041                 1.00   0.00  0.00  0.00  1.00  0.00  0.00  0.00  0.02  0.00
  WSL2124                 1.00   0.00  0.00  0.00  1.00  0.00  0.00  0.00  0.95  0.00
  WSL2126                 1.00   0.00  0.00  0.00  1.00  0.00  0.00  0.00  0.89  0.00
  WSL2127                 1.00   0.00  0.00  0.00  1.00  0.00  0.00  0.00  0.00  0.00
  WSL2128                 1.00   0.00  0.00  0.00  1.00  0.00  0.00  0.00  0.99  0.00
  WSL2130                 1.00   0.00  0.00  0.00  0.51  0.49  0.00  0.00  0.01  0.00
  WSL2146                 1.00   0.00  0.00  0.00  1.00  0.00  0.00  0.00  0.95  0.00
  WSL2147                 1.00   0.00  0.00  0.00  1.00  0.00  0.00  0.00  0.01  0.00
  WSL2148                 1.00   0.00  0.00  0.00  0.41  0.59  0.00  0.00  0.63  0.00
  WSL2294                 1.00   0.00  0.00  0.00  1.00  0.00  0.00  0.00  0.00  0.00
  WSL2295                 1.00   0.00  0.00  0.00  1.00  0.00  0.00  0.00  0.00  0.00
[...]
  WSL175                  1.00   0.00  0.00  0.00  1.00  0.00  0.00  0.00  0.07  0.00
  WSL1467                 1.00   0.00  0.00  0.00  1.00  0.00  0.00  0.00  0.04  0.00
  WSL1473                 1.00   0.00  0.00  0.00  1.00  0.00  0.00  0.00  0.03  0.00
  XRpipe                  1.00   0.00  0.00  0.00  1.00  0.00  0.00  0.00  0.01  0.00
  8                       1.00   1.00  0.00  0.00  0.00  0.00  0.00  0.00  0.00  0.00
  19                      1.00   1.00  0.00  0.00  0.00  0.00  0.00  0.00  0.00  0.00
  17                      1.00   1.00  0.00  0.00  0.00  0.00  0.00  0.00  0.00  0.00
  4                       1.00   1.00  0.00  0.00  0.00  0.00  0.00  0.00  0.00  0.00
  outletpipe              1.00   0.44  0.00  0.00  0.00  0.56  0.00  0.00  0.00  0.00
  11                      1.00   1.00  0.00  0.00  0.00  0.00  0.00  0.00  0.00  0.00
  20                      1.00   1.00  0.00  0.00  0.00  0.00  0.00  0.00  0.00  0.00
  1                       1.00   1.00  0.00  0.00  0.00  0.00  0.00  0.00  0.00  0.00
  28                      1.00   1.00  0.00  0.00  0.00  0.00  0.00  0.00  0.00  0.00
  30                      1.00   1.00  0.00  0.00  0.00  0.00  0.00  0.00  0.00  0.00
  2                       1.00   0.00  0.00  0.00  0.00  1.00  0.00  0.00  0.32  0.00
  
  
  *************************
  Conduit Surcharge Summary
  *************************
  
  ----------------------------------------------------------------------------
                                                           Hours        Hours 
                         --------- Hours Full --------   Above Full   Capacity
  Conduit                Both Ends  Upstream  Dnstream   Normal Flow   Limited
  ----------------------------------------------------------------------------
  WSL49                       0.01      0.01      0.01      0.25         0.01
  WSL51                       0.01      0.01      0.01      0.28         0.01
  WSL53                       0.01      0.01      0.01      0.31         0.01
  WSL149                      0.01      0.01      0.01      0.56         0.01
  WSL1475                     0.01      0.01      0.01      0.07         0.01
  WSL2013                     0.01      0.01      0.01      0.02         0.01
  WSL2294                     0.01      0.01      0.01      0.24         0.01
  WSL2295                     0.01      0.01      0.01      0.49         0.01
  WSL2298                     0.01      0.01      0.01      0.57         0.01
  WSL2441                     0.01      0.01      0.01      0.05         0.01
  WSL2442                     0.01      0.01      0.01      0.02         0.01
  WSL2447                     0.01      0.01      0.01      0.58         0.01
  WSL2448                     0.01      0.01      0.01      0.11         0.01
  WSL2451                     0.01      0.01      0.01      0.55         0.01
  WSL2480                     0.01      0.01      0.01      0.07         0.01
  WSL348                      1.28      1.28      1.31      0.01         0.01
  WSL175                      1.31      1.31      1.31      1.67         1.30
  XRpipe                      1.31      1.31      3.96      0.01         0.01
  
  
  ***************
  Pumping Summary
  ***************
  
  ---------------------------------------------------------------------------------------------------------
                                                  Min       Avg       Max     Total     Power    % Time Off
                        Percent   Number of      Flow      Flow      Flow    Volume     Usage    Pump Curve
  Pump                 Utilized   Start-Ups       MLD       MLD       MLD  10^6 ltr     Kw-hr    Low   High
  ---------------------------------------------------------------------------------------------------------
  XR-Pump-1               98.82           1      0.00      8.12      8.12     1.337     12.85    0.0    0.0
  XR-Pump-3               91.10           7      0.00      8.12      8.12     1.233     11.50    0.0    0.0
  XR-Pump-2               98.05           1      0.00      8.12      8.12     1.327     12.71    0.0    0.0
  XR-Pump-4               44.95          31      0.00      8.12      8.12     0.608      3.45    0.0    0.0
  CC-Pump-1               16.20           6      0.00     17.28     17.28     0.467      3.72    0.0    0.0
  CC-Pump-2                0.00           0      0.00      0.00      0.00     0.000      0.00    0.0    0.0
  JK-Pump-1               13.22           5      0.00     17.28     17.28     0.381      2.71    0.0    0.0
  JK-Pump-2                0.00           0      0.00      0.00      0.00     0.000      0.00    0.0    0.0
  
  
  ***************************
  Link Pollutant Load Summary
  ***************************
  
  ------------------------------------------------------------------------------------------
                                 COD         NH3-N            TN            TP            SS
  Link                            kg            kg            kg            kg            kg
  ------------------------------------------------------------------------------------------
  WSL49                     1052.743         0.000         0.000         0.000         0.000
  WSL50                       87.069         0.000         0.000         0.000         0.000
  WSL51                       85.580         0.000         0.000         0.000         0.000
  WSL52                       85.384         0.000         0.000         0.000         0.000
  WSL53                       84.676         0.000         0.000         0.000         0.000
  WSL54                       84.661         0.000         0.000         0.000         0.000
  WSL55                       83.479         0.000         0.000         0.000         0.000
  WSL77                       83.181         0.000         0.000         0.000         0.000
  WSL78                       82.528         0.000         0.000         0.000         0.000
  WSL79                       81.523         0.000         0.000         0.000         0.000
  WSL80                       80.030         0.000         0.000         0.000         0.000
  WSL81                       78.302         0.000         0.000         0.000         0.000
  WSL82                       77.416         0.000         0.000         0.000         0.000
  WSL83                       77.178         0.000         0.000         0.000         0.000
  WSL84                       45.915         0.000         0.000         0.000         0.000
  WSL85                        3.535         0.000         0.000         0.000         0.000
  WSL86                        0.907         0.000         0.000         0.000         0.000
  WSL122                      67.388         0.000         0.000         0.000         0.000
  WSL123                      76.113         0.000         0.000         0.000         0.000
  WSL144                      62.161         0.000         0.000         0.000         0.000
  WSL145                      66.223         0.000         0.000         0.000         0.000
  WSL146                      69.239         0.000         0.000         0.000         0.000
  WSL147                      69.695         0.000         0.000         0.000         0.000
  WSL148                      69.708         0.000         0.000         0.000         0.000
  WSL149                      74.080         0.000         0.000         0.000         0.000
  WSL150                      75.561         0.000         0.000         0.000         0.000
  WSL151                      75.785         0.000         0.000         0.000         0.000
  WSL500                      41.085         0.000         0.000         0.000         0.000
  WSL502                      44.352         0.000         0.000         0.000         0.000
  WSL508                      35.117         0.000         0.000         0.000         0.000
  WSL509                      33.148         0.000         0.000         0.000         0.000
  WSL551                      17.654         0.000         0.000         0.000         0.000
  WSL553                      18.735         0.000         0.000         0.000         0.000
  WSL554                      19.977         0.000         0.000         0.000         0.000
  WSL555                      21.549         0.000         0.000         0.000         0.000
  WSL1465                    622.291         0.000         0.000         0.000         0.000
  WSL1472                    943.490         0.000         0.000         0.000         0.000
  WSL1475                   1070.868         0.000         0.000         0.000         0.000
  WSL1476                    107.014         0.000         0.000         0.000         0.000
  WSL1477                     18.189         0.000         0.000         0.000         0.000
  WSL1490                    607.799         0.000         0.000         0.000         0.000
  WSL1491                    611.811         0.000         0.000         0.000         0.000
  WSL1492                    618.591         0.000         0.000         0.000         0.000
  WSL1506                      1.646         0.000         0.000         0.000         0.000
  WSL1507                      2.135         0.000         0.000         0.000         0.000
  WSL1508                      9.252         0.000         0.000         0.000         0.000
  WSL1512                      9.703         0.000         0.000         0.000         0.000
  WSL1513                     11.377         0.000         0.000         0.000         0.000
  WSL1515                    310.099         0.000         0.000         0.000         0.000
  WSL1516                     18.892         0.000         0.000         0.000         0.000
  WSL1518                     15.434         0.000         0.000         0.000         0.000
  WSL1519                     16.192         0.000         0.000         0.000         0.000
  WSL1521                     17.305         0.000         0.000         0.000         0.000
  WSL1525                     47.368         0.000         0.000         0.000         0.000
  WSL1526                     47.801         0.000         0.000         0.000         0.000
  WSL1529                     50.300         0.000         0.000         0.000         0.000
  WSL1530                     53.690         0.000         0.000         0.000         0.000
  WSL1532                     57.094         0.000         0.000         0.000         0.000
  WSL1543                     15.735         0.000         0.000         0.000         0.000
  WSL1545                     60.821         0.000         0.000         0.000         0.000
  WSL1641                     29.956         0.000         0.000         0.000         0.000
  WSL1642                     27.807         0.000         0.000         0.000         0.000
  WSL1643                     25.102         0.000         0.000         0.000         0.000
  WSL1644                     22.410         0.000         0.000         0.000         0.000
  WSL1646                     20.016         0.000         0.000         0.000         0.000
  WSL1647                     17.919         0.000         0.000         0.000         0.000
  WSL1652                     15.434         0.000         0.000         0.000         0.000
  WSL1764                     51.842         0.000         0.000         0.000         0.000
  WSL1931                     13.463         0.000         0.000         0.000         0.000
  WSL1932                     10.685         0.000         0.000         0.000         0.000
  WSL1934                      7.351         0.000         0.000         0.000         0.000
  WSL1935                      6.648         0.000         0.000         0.000         0.000
  WSL1961                    594.642         0.000         0.000         0.000         0.000
  WSL1964                    603.656         0.000         0.000         0.000         0.000
  WSL2010                    249.752         0.000         0.000         0.000         0.000
  WSL2011                    255.107         0.000         0.000         0.000         0.000
  WSL2012                    260.670         0.000         0.000         0.000         0.000
  WSL2013                    264.465         0.000         0.000         0.000         0.000
  WSL2014                    275.907         0.000         0.000         0.000         0.000
  WSL2015                    277.638         0.000         0.000         0.000         0.000
  WSL2016                    288.089         0.000         0.000         0.000         0.000
  WSL2017                    290.917         0.000         0.000         0.000         0.000
  WSL2018                    302.143         0.000         0.000         0.000         0.000
  WSL2019                    304.449         0.000         0.000         0.000         0.000
  WSL2028                    244.697         0.000         0.000         0.000         0.000
  WSL2029                    296.423         0.000         0.000         0.000         0.000
  WSL2031                      4.496         0.000         0.000         0.000         0.000
  WSL2032                      2.656         0.000         0.000         0.000         0.000
  WSL2034                     36.414         0.000         0.000         0.000         0.000
  WSL2037                     37.722         0.000         0.000         0.000         0.000
  WSL2038                     45.113         0.000         0.000         0.000         0.000
  WSL2039                     52.579         0.000         0.000         0.000         0.000
  WSL2041                     48.738         0.000         0.000         0.000         0.000
  WSL2124                     26.801         0.000         0.000         0.000         0.000
  WSL2126                     27.754         0.000         0.000         0.000         0.000
  WSL2127                     29.276         0.000         0.000         0.000         0.000
  WSL2128                     30.865         0.000         0.000         0.000         0.000
  WSL2130                     36.109         0.000         0.000         0.000         0.000
  WSL2146                     37.569         0.000         0.000         0.000         0.000
  WSL2147                     38.422         0.000         0.000         0.000         0.000
  WSL2148                     39.579         0.000         0.000         0.000         0.000
  WSL2294                    221.564         0.000         0.000         0.000         0.000
  WSL2295                    223.006         0.000         0.000         0.000         0.000
  WSL2296                    232.740         0.000         0.000         0.000         0.000
  WSL2297                    236.848         0.000         0.000         0.000         0.000
  WSL2298                    226.842         0.000         0.000         0.000         0.000
  WSL2301                    238.407         0.000         0.000         0.000         0.000
  WSL2302                    243.842         0.000         0.000         0.000         0.000
  WSL2357                      5.175         0.000         0.000         0.000         0.000
  WSL2358                      6.791         0.000         0.000         0.000         0.000
  WSL2359                      7.789         0.000         0.000         0.000         0.000
  WSL2361                     12.802         0.000         0.000         0.000         0.000
  WSL2362                     14.165         0.000         0.000         0.000         0.000
  WSL2441                    220.034         0.000         0.000         0.000         0.000
  WSL2442                    188.498         0.000         0.000         0.000         0.000
  WSL2443                    186.940         0.000         0.000         0.000         0.000
  WSL2444                    183.735         0.000         0.000         0.000         0.000
  WSL2446                    181.718         0.000         0.000         0.000         0.000
  WSL2447                    178.445         0.000         0.000         0.000         0.000
  WSL2448                    174.889         0.000         0.000         0.000         0.000
  WSL2449                    135.577         0.000         0.000         0.000         0.000
  WSL2450                    132.103         0.000         0.000         0.000         0.000
  WSL2451                    129.702         0.000         0.000         0.000         0.000
  WSL2452                    127.918         0.000         0.000         0.000         0.000
  WSL2454                    123.649         0.000         0.000         0.000         0.000
  WSL2478                    121.951         0.000         0.000         0.000         0.000
  WSL2479                    116.654         0.000         0.000         0.000         0.000
  WSL2480                    113.554         0.000         0.000         0.000         0.000
  WSL2482                    109.095         0.000         0.000         0.000         0.000
  WSL2484                    105.947         0.000         0.000         0.000         0.000
  WSL2493                    191.457         0.000         0.000         0.000         0.000
  WSL2867                    311.674         0.000         0.000         0.000         0.000
  WSL2868                    315.655         0.000         0.000         0.000         0.000
  5                           17.456         0.000         0.000         0.000         0.000
  WSL348                     636.114         0.000         0.000         0.000         0.000
  WSL175                     642.818         0.000         0.000         0.000         0.000
  WSL1467                    938.633         0.000         0.000         0.000         0.000
  WSL1473                    946.936         0.000         0.000         0.000         0.000
  XRpipe                     655.891         0.000         0.000         0.000         0.000
  8                            0.000         0.000         0.000         0.000         0.000
  19                           0.000         0.000         0.000         0.000         0.000
  17                           0.000         0.000         0.000         0.000         0.000
  4                            0.000         0.000         0.000         0.000         0.000
  outletpipe                  62.099         0.000         0.000         0.000         0.000
  11                           0.000         0.000         0.000         0.000         0.000
  20                           0.000         0.000         0.000         0.000         0.000
  1                            0.000         0.000         0.000         0.000         0.000
  28                           0.000         0.000         0.000         0.000         0.000
  30                           0.000         0.000         0.000         0.000         0.000
  2                         1086.658         0.000         0.000         0.000         0.000
  XR-Pump-1                  179.474         0.000         0.000         0.000         0.000
  XR-Pump-3                  162.039         0.000         0.000         0.000         0.000
  XR-Pump-2                  177.748         0.000         0.000         0.000         0.000
  XR-Pump-4                   63.439         0.000         0.000         0.000         0.000
  CC-Pump-1                   53.532         0.000         0.000         0.000         0.000
  CC-Pump-2                    0.000         0.000         0.000         0.000         0.000
  JK-Pump-1                   37.514         0.000         0.000         0.000         0.000
  JK-Pump-2                    0.000         0.000         0.000         0.000         0.000
  

  Analysis begun on:  Mon Oct 29 01:05:09 2018
  Analysis ended on:  Mon Oct 29 01:05:10 2018
  Total elapsed time: 00:00:01