
  EPA STORM WATER MANAGEMENT MODEL - VERSION 5.1 (Build 5.2.0.dev1)
  --------------------------------------------------------------

  
  *********************************************************
  NOTE: The summary statistics displayed in this report are
  based on results found at every computational time step,  
  not just on results from each reporting time step.
  *********************************************************
  
  ****************
  Analysis Options
  ****************
  Flow Units ............... MLD
  Process Models:
    Rainfall/Runoff ........ YES
    RDII ................... NO
    Snowmelt ............... NO
    Groundwater ............ NO
    Flow Routing ........... YES
    Ponding Allowed ........ NO
    Water Quality .......... YES
  Infiltration Method ...... GREEN_AMPT
  Flow Routing Method ...... DYNWAVE
  Starting Date ............ 08/28/2015 08:00:00
  Ending Date .............. 08/28/2015 12:00:00
  Antecedent Dry Days ...... 4.0
  Report Time Step ......... 00:01:00
  Wet Time Step ............ 00:01:00
  Dry Time Step ............ 00:01:00
  Routing Time Step ........ 5.00 sec
  Variable Time Step ....... YES
  Maximum Trials ........... 8
  Number of Threads ........ 1
  Head Tolerance ........... 0.001500 m
  
  
  **************************        Volume         Depth
  Runoff Quantity Continuity     hectare-m            mm
  **************************     ---------       -------
  Total Precipitation ......         1.722         5.208
  Evaporation Loss .........         0.000         0.000
  Infiltration Loss ........         1.071         3.240
  Surface Runoff ...........         0.263         0.795
  Final Storage ............         0.389         1.176
  Continuity Error (%) .....        -0.037
  
  
  **************************           COD         NH3-N            TN            TP            SS
  Runoff Quality Continuity             kg            kg            kg            kg            kg
  **************************    ----------    ----------    ----------    ----------    ----------
  Initial Buildup ..........     15404.640         0.000         0.000         0.000         0.000
  Surface Buildup ..........       148.362         0.000         0.000         0.000         0.000
  Wet Deposition ...........         0.000         0.000         0.000         0.000         0.000
  Sweeping Removal .........         0.000         0.000         0.000         0.000         0.000
  Infiltration Loss ........        30.214         0.000         0.000         0.000         0.000
  BMP Removal ..............         0.000         0.000         0.000         0.000         0.000
  Surface Runoff ...........       107.826         0.000         0.000         0.000         0.000
  Remaining Buildup ........     15414.818         0.000         0.000         0.000         0.000
  Continuity Error (%) .....         0.001         0.000         0.000         0.000         0.000
  
  
  **************************        Volume        Volume
  Flow Routing Continuity        hectare-m      10^6 ltr
  **************************     ---------     ---------
  Dry Weather Inflow .......         0.000         0.000
  Wet Weather Inflow .......         0.262         2.619
  Groundwater Inflow .......         0.000         0.000
  RDII Inflow ..............         0.000         0.000
  External Inflow ..........         0.621         6.206
  External Outflow .........         0.799         7.988
  Flooding Loss ............         0.000         0.000
  Evaporation Loss .........         0.000         0.000
  Exfiltration Loss ........         0.000         0.000
  Initial Stored Volume ....         0.000         0.000
  Final Stored Volume ......         0.084         0.838
  Continuity Error (%) .....        -0.002
  
  
  **************************           COD         NH3-N            TN            TP            SS
  Quality Routing Continuity            kg            kg            kg            kg            kg
  **************************    ----------    ----------    ----------    ----------    ----------
  Dry Weather Inflow .......         0.000         0.000         0.000         0.000         0.000
  Wet Weather Inflow .......       107.594         0.000         0.000         0.000         0.000
  Groundwater Inflow .......         0.000         0.000         0.000         0.000         0.000
  RDII Inflow ..............         0.000         0.000         0.000         0.000         0.000
  External Inflow ..........      1036.455         0.000         0.000         0.000         0.000
  External Outflow .........      1057.552         0.000         0.000         0.000         0.000
  Flooding Loss ............         0.000         0.000         0.000         0.000         0.000
  Exfiltration Loss ........         0.000         0.000         0.000         0.000         0.000
  Mass Reacted .............         0.000         0.000         0.000         0.000         0.000
  Initial Stored Mass ......         0.000         0.000         0.000         0.000         0.000
  Final Stored Mass ........        86.580         0.000         0.000         0.000         0.000
  Continuity Error (%) .....        -0.007         0.000         0.000         0.000         0.000
  
  
  *************************
  Highest Continuity Errors
  *************************
  Node WS02003099 (1.67%)
  Node WS02003094 (1.45%)
  Node WS02003123 (1.34%)
  
  
  ***************************
  Time-Step Critical Elements
  ***************************
  Link WSL2448 (76.64%)
  Link WSL1477 (9.45%)
  Link WSL2867 (6.81%)
  Link WSL150 (1.41%)
  
  
  ********************************
  Highest Flow Instability Indexes
  ********************************
  Link WSL1477 (87)
  Link WSL1516 (75)
  Link XRpipe (21)
  Link WSL175 (18)
  Link WSL1475 (15)
  
  
  *************************
  Routing Time Step Summary
  *************************
  Minimum Time Step           :     0.50 sec
  Average Time Step           :     3.23 sec
  Maximum Time Step           :     5.00 sec
  Percent in Steady State     :    -0.00
  Average Iterations per Step :     2.70
  Percent Not Converging      :     8.06
  
  
  ***************************
  Subcatchment Runoff Summary
  ***************************
  
  --------------------------------------------------------------------------------------------------------
                            Total      Total      Total      Total      Total       Total     Peak  Runoff
                           Precip      Runon       Evap      Infil     Runoff      Runoff   Runoff   Coeff
  Subcatchment                 mm         mm         mm         mm         mm    10^6 ltr      MLD
  --------------------------------------------------------------------------------------------------------
  1                          5.21       2.94       0.00       5.23       2.07        0.03     0.50   0.254
  2                          5.21       0.00       0.00       3.90       1.17        0.04     0.78   0.224
  3                          5.21       0.00       0.00       3.90       1.13        0.06     1.13   0.217
  4                          5.21       0.00       0.00       3.90       1.18        0.03     0.63   0.228
  5                          5.21       2.92       0.00       5.23       2.02        0.03     0.68   0.248
  6                          5.21       0.00       0.00       3.90       1.14        0.06     1.10   0.218
  7                          5.21       0.00       0.00       2.24       0.84        1.34    22.23   0.161
  8                          5.21       0.00       0.00       3.90       1.15        0.05     0.96   0.221
  9                          5.21       1.13       0.00       4.72       1.42        0.05     1.06   0.225
  10                         5.21       1.60       0.00       4.91       1.61        0.03     0.60   0.237
  11                         5.21       0.00       0.00       3.90       1.20        0.02     0.48   0.231
  13                         5.21      12.49       0.00       6.35       7.48        0.01     0.22   0.423
  14                         5.21      15.84       0.00       7.06      10.04        0.02     0.39   0.477
  16                         5.21       1.77       0.00       4.83       1.69        0.01     0.23   0.242
  17                         5.21       0.00       0.00       3.90       1.16        0.04     0.84   0.223
  18                         5.21       0.00       0.00       3.90       1.15        0.05     0.98   0.220
  19                         5.21       0.00       0.00       3.90       1.19        0.03     0.60   0.228
  20                         5.21       1.07       0.00       4.68       1.44        0.04     0.80   0.230
  21                         5.21       2.65       0.00       5.17       1.95        0.03     0.59   0.248
  22                         5.21       2.15       0.00       5.09       1.79        0.03     0.64   0.243
  23                         5.21       0.00       0.00       3.89       1.26        0.01     0.18   0.241
  24                         5.21       0.00       0.00       3.90       1.20        0.03     0.52   0.230
  25                         5.21       0.00       0.00       3.89       1.24        0.01     0.29   0.237
  26                         5.21       0.00       0.00       3.90       1.20        0.02     0.48   0.231
  27                         5.21       0.00       0.00       3.90       1.21        0.02     0.47   0.231
  28                         5.21       2.77       0.00       5.19       1.91        0.05     0.99   0.239
  29                         5.21       1.02       0.00       4.65       1.43        0.03     0.69   0.230
  30                         5.21       4.43       0.00       5.55       2.66        0.02     0.49   0.275
  31                         5.21       0.00       0.00       3.90       1.16        0.04     0.81   0.223
  32                         5.21       0.00       0.00       3.90       1.13        0.06     1.13   0.217
  33                         5.21       0.00       0.00       3.89       1.25        0.01     0.22   0.240
  34                         5.21       2.44       0.00       5.14       1.85        0.04     0.77   0.242
  35                         5.21       0.00       0.00       3.90       1.18        0.04     0.71   0.226
  36                         5.21       2.05       0.00       5.04       1.60        0.09     1.84   0.221
  37                         5.21       0.00       0.00       3.90       1.14        0.05     1.01   0.220
  38                         5.21       0.00       0.00       3.90       1.18        0.03     0.68   0.226
  39                         5.21       0.00       0.00       3.90       1.17        0.04     0.79   0.224
  40                         5.21       0.60       0.00       4.34       1.30        0.05     1.00   0.223
  41                         5.21       0.00       0.00       3.90       1.21        0.02     0.47   0.232
  42                         5.21       0.00       0.00       3.90       1.20        0.03     0.54   0.230
  43                         5.21       0.00       0.00       3.89       1.28        0.00     0.10   0.246
  44                         5.21      26.75       0.00       8.17      16.23        0.06     1.09   0.508
  45                         5.21       0.00       0.00       3.89       1.24        0.01     0.26   0.238
  46                         5.21       1.66       0.00       4.96       1.63        0.03     0.70   0.237
  47                         5.21       0.00       0.00       3.89       1.24        0.01     0.28   0.237
  48                         5.21       0.87       0.00       4.53       1.44        0.02     0.46   0.237
  49                         5.21       0.00       0.00       3.90       1.20        0.03     0.51   0.230
  50                         5.21       1.45       0.00       4.90       1.59        0.03     0.57   0.238
  51                         5.21       1.20       0.00       4.77       1.50        0.03     0.64   0.234
  52                         5.21       0.00       0.00       3.90       1.20        0.03     0.51   0.230
  53                         5.21       0.59       0.00       4.33       1.36        0.02     0.48   0.235
  54                         5.21       0.00       0.00       3.89       1.25        0.01     0.21   0.240
  55                         5.21       1.26       0.00       4.79       1.60        0.01     0.28   0.247
  56                         5.21       1.80       0.00       4.99       1.66        0.04     0.71   0.237
  57                         5.21       0.00       0.00       3.90       1.13        0.06     1.11   0.218
  58                         5.21       0.00       0.00       3.89       1.24        0.01     0.26   0.238
  59                         5.21       0.00       0.00       3.89       1.25        0.01     0.22   0.240
  60                         5.21       2.84       0.00       5.25       2.18        0.01     0.24   0.271
  61                         5.21       0.00       0.00       3.90       0.99        0.18     3.38   0.190
  62                         5.21       0.00       0.00       3.90       0.98        0.19     3.54   0.189
  63                         5.21       0.00       0.00       3.89       1.24        0.01     0.25   0.239
  64                         5.21       0.00       0.00       3.89       1.23        0.01     0.30   0.237
  65                         5.21       0.00       0.00       3.90       1.21        0.02     0.42   0.233
  
  
  ****************************
  Subcatchment Washoff Summary
  ****************************
  
  ------------------------------------------------------------------------------------------
                                 COD         NH3-N            TN            TP            SS
  Subcatchment                    kg            kg            kg            kg            kg
  ------------------------------------------------------------------------------------------
  1                            0.632         0.000         0.000         0.000         0.000
  2                            0.000         0.000         0.000         0.000         0.000
  3                            0.000         0.000         0.000         0.000         0.000
  4                            1.239         0.000         0.000         0.000         0.000
  5                            2.678         0.000         0.000         0.000         0.000
  6                            2.106         0.000         0.000         0.000         0.000
  7                           40.505         0.000         0.000         0.000         0.000
  8                            1.851         0.000         0.000         0.000         0.000
  9                            2.915         0.000         0.000         0.000         0.000
  10                           2.131         0.000         0.000         0.000         0.000
  11                           0.955         0.000         0.000         0.000         0.000
  13                           4.971         0.000         0.000         0.000         0.000
  14                           5.643         0.000         0.000         0.000         0.000
  16                           1.597         0.000         0.000         0.000         0.000
  17                           1.637         0.000         0.000         0.000         0.000
  18                           1.888         0.000         0.000         0.000         0.000
  19                           1.186         0.000         0.000         0.000         0.000
  20                           2.207         0.000         0.000         0.000         0.000
  21                           2.394         0.000         0.000         0.000         0.000
  22                           2.234         0.000         0.000         0.000         0.000
  23                           0.374         0.000         0.000         0.000         0.000
  24                           1.044         0.000         0.000         0.000         0.000
  25                           0.583         0.000         0.000         0.000         0.000
  26                           0.964         0.000         0.000         0.000         0.000
  27                           0.943         0.000         0.000         0.000         0.000
  28                           4.255         0.000         0.000         0.000         0.000
  29                           2.210         0.000         0.000         0.000         0.000
  30                           2.463         0.000         0.000         0.000         0.000
  31                           1.591         0.000         0.000         0.000         0.000
  32                           2.171         0.000         0.000         0.000         0.000
  33                           0.456         0.000         0.000         0.000         0.000
  34                           2.790         0.000         0.000         0.000         0.000
  35                           1.387         0.000         0.000         0.000         0.000
  36                           6.381         0.000         0.000         0.000         0.000
  37                           1.947         0.000         0.000         0.000         0.000
  38                           1.348         0.000         0.000         0.000         0.000
  39                           1.537         0.000         0.000         0.000         0.000
  40                           2.402         0.000         0.000         0.000         0.000
  41                           0.938         0.000         0.000         0.000         0.000
  42                           1.082         0.000         0.000         0.000         0.000
  43                           0.202         0.000         0.000         0.000         0.000
  44                          17.568         0.000         0.000         0.000         0.000
  45                           0.531         0.000         0.000         0.000         0.000
  46                           2.290         0.000         0.000         0.000         0.000
  47                           0.569         0.000         0.000         0.000         0.000
  48                           1.227         0.000         0.000         0.000         0.000
  49                           1.028         0.000         0.000         0.000         0.000
  50                           1.715         0.000         0.000         0.000         0.000
  51                           1.840         0.000         0.000         0.000         0.000
  52                           1.028         0.000         0.000         0.000         0.000
  53                           1.191         0.000         0.000         0.000         0.000
  54                           0.437         0.000         0.000         0.000         0.000
  55                           0.815         0.000         0.000         0.000         0.000
  56                           2.432         0.000         0.000         0.000         0.000
  57                           2.128         0.000         0.000         0.000         0.000
  58                           0.536         0.000         0.000         0.000         0.000
  59                           0.441         0.000         0.000         0.000         0.000
  60                           0.956         0.000         0.000         0.000         0.000
  61                           5.876         0.000         0.000         0.000         0.000
  62                           6.115         0.000         0.000         0.000         0.000
  63                           0.503         0.000         0.000         0.000         0.000
  64                           0.610         0.000         0.000         0.000         0.000
  65                           0.847         0.000         0.000         0.000         0.000
  ------------------------------------------------------------------------------------------
  System                     166.522         0.000         0.000         0.000         0.000
  
  
  ******************
  Node Depth Summary
  ******************
  
  ---------------------------------------------------------------------------------
                                 Average  Maximum  Maximum  Time of Max    Reported
                                   Depth    Depth      HGL   Occurrence   Max Depth
  Node                 Type       Meters   Meters   Meters  days hr:min      Meters
  ---------------------------------------------------------------------------------
  WS01000070           JUNCTION     0.00     0.00     0.00     0  00:00        0.00
  WS01000323           JUNCTION     0.00     0.00     0.00     0  00:00        0.00
  WS01000533           JUNCTION     0.00     0.00     6.86     0  00:00        0.00
  WS01005172           JUNCTION     0.00     0.00     0.00     0  00:00        0.00
  WS01005181           JUNCTION     0.00     0.00     0.00     0  00:00        0.00
  WS01009841           JUNCTION     0.00     0.00     0.00     0  00:00        0.00
  WS02000078           JUNCTION     0.00     0.00     0.00     0  00:00        0.00
  WS02000112           JUNCTION     0.00     0.00     0.00     0  00:00        0.00
  WS02000136           JUNCTION     0.00     0.00     0.00     0  00:00        0.00
  WS02001211           JUNCTION     0.40     0.44     5.28     0  03:09        0.44
  WS02001212           JUNCTION     0.33     0.38     5.18     0  03:08        0.38
  WS02001213           JUNCTION     0.42     0.49     5.19     0  03:08        0.48
  WS02003059           JUNCTION     0.36     0.46     5.11     0  03:06        0.46
  WS02003060           JUNCTION     0.40     0.55     5.10     0  03:07        0.54
  WS02003066           JUNCTION     0.13     0.26     5.56     0  03:06        0.25
  WS02003067           JUNCTION     0.22     0.43     5.75     0  03:06        0.41
  WS02003071           JUNCTION     0.45     0.60     5.00     0  03:09        0.60
  WS02003072           JUNCTION     0.37     0.53     4.90     0  02:41        0.53
  WS02003073           JUNCTION     0.45     0.67     4.91     0  02:41        0.64
  WS02003076           JUNCTION     0.40     0.61     4.84     0  02:40        0.61
  WS02003077           JUNCTION     0.08     0.12     5.13     0  03:11        0.12
  WS02003078           JUNCTION     0.03     0.04     6.94     0  03:05        0.04
  WS02003079           JUNCTION     0.07     0.11     7.02     0  03:04        0.11
  WS02003080           JUNCTION     0.16     0.21     5.24     0  03:14        0.21
  WS02003081           JUNCTION     0.19     0.27     5.31     0  03:14        0.27
  WS02003082           JUNCTION     0.18     0.26     5.34     0  03:14        0.26
  WS02003083           JUNCTION     0.21     0.29     5.38     0  03:14        0.29
  WS02003084           JUNCTION     0.21     0.30     5.40     0  03:13        0.30
  WS02003085           JUNCTION     0.15     0.22     5.39     0  03:13        0.22
  WS02003086           JUNCTION     0.17     0.24     5.44     0  03:12        0.24
  WS02003087           JUNCTION     0.19     0.26     5.48     0  03:11        0.26
  WS02003088           JUNCTION     0.15     0.22     5.51     0  03:11        0.22
  WS02003089           JUNCTION     0.12     0.17     5.63     0  03:09        0.17
  WS02003090           JUNCTION     0.15     0.21     5.68     0  03:09        0.21
  WS02003091           JUNCTION     0.09     0.13     5.93     0  03:09        0.13
  WS02003092           JUNCTION     0.01     0.01     7.65     0  01:24        0.01
  WS02003093           JUNCTION     0.02     0.02     7.36     0  01:53        0.02
  WS02003094           JUNCTION     0.07     0.11     7.33     0  03:01        0.11
  WS02003098           JUNCTION     0.04     0.06     7.23     0  03:02        0.06
  WS02003099           JUNCTION     0.09     0.13     7.17     0  03:04        0.13
  WS02003102           JUNCTION     0.07     0.11     7.14     0  03:01        0.11
  WS02003103           JUNCTION     0.08     0.13     7.10     0  03:03        0.13
  WS02003104           JUNCTION     0.08     0.13     7.09     0  03:03        0.13
  WS02003106           JUNCTION     0.09     0.13     7.06     0  03:04        0.13
  WS02003110           JUNCTION     0.09     0.13     7.38     0  03:04        0.13
  WS02003111           JUNCTION     0.08     0.12     7.21     0  03:04        0.12
  WS02003115           JUNCTION     0.10     0.15     7.05     0  03:05        0.15
  WS02003116           JUNCTION     0.12     0.18     6.89     0  03:05        0.18
  WS02003118           JUNCTION     0.11     0.15     6.77     0  03:04        0.15
  WS02003122           JUNCTION     0.15     0.22     6.59     0  03:06        0.22
  WS02003123           JUNCTION     0.08     0.15     6.59     0  03:06        0.15
  WS02003126           JUNCTION     0.03     0.07     6.59     0  03:06        0.07
  WS02003187           JUNCTION     0.16     0.24     6.57     0  03:07        0.24
  WS02003188           JUNCTION     0.21     0.30     6.56     0  03:07        0.30
  WS02003190           JUNCTION     0.20     0.29     6.54     0  03:07        0.29
  WS02003193           JUNCTION     0.19     0.28     6.52     0  03:07        0.28
  WS02003195           JUNCTION     0.19     0.27     6.49     0  03:07        0.27
  WS02003196           JUNCTION     0.21     0.29     6.47     0  03:08        0.29
  WS02003198           JUNCTION     0.20     0.28     6.45     0  03:08        0.28
  WS02003200           JUNCTION     0.13     0.19     6.35     0  03:08        0.19
  WS02003201           JUNCTION     0.12     0.18     6.32     0  03:08        0.18
  WS02003202           JUNCTION     0.13     0.19     6.25     0  03:09        0.19
  WS02003203           JUNCTION     0.09     0.12     6.12     0  03:09        0.12
  WS02003215           JUNCTION     0.09     0.13     6.99     0  03:05        0.13
  WS02004050           JUNCTION     0.28     0.38     4.60     0  03:09        0.38
  WS02004053           JUNCTION     0.00     0.00     0.00     0  00:00        0.00
  WS02004136           JUNCTION     0.16     0.18     6.91     0  02:15        0.18
  WS02004139           JUNCTION     0.33     0.37     5.33     0  02:34        0.37
  WS02004401           JUNCTION     0.22     0.45     6.45     0  03:01        0.45
  WS02004402           JUNCTION     0.23     0.45     6.41     0  03:01        0.45
  WS02004403           JUNCTION     0.20     0.44     6.37     0  03:02        0.44
  WS02004404           JUNCTION     0.28     0.53     6.38     0  03:03        0.53
  WS02004405           JUNCTION     0.29     0.53     6.37     0  03:03        0.52
  WS02004406           JUNCTION     0.27     0.50     6.33     0  03:04        0.50
  WS02004407           JUNCTION     0.25     0.47     6.27     0  03:03        0.47
  WS02004409           JUNCTION     0.24     0.46     6.23     0  03:03        0.46
  WS02004410           JUNCTION     0.24     0.45     6.17     0  03:04        0.45
  WS02004411           JUNCTION     0.22     0.42     6.10     0  03:04        0.41
  WS02004412           JUNCTION     0.18     0.36     6.00     0  03:04        0.35
  WS02004413           JUNCTION     0.19     0.36     5.83     0  03:05        0.36
  WS02004997           JUNCTION     2.17     6.20     7.81     0  03:05        6.19
  WS02005122           JUNCTION     0.04     0.07     9.59     0  03:01        0.07
  WS02005123           JUNCTION     0.04     0.06     9.52     0  03:01        0.06
  WS02005124           JUNCTION     0.04     0.06     9.33     0  03:01        0.06
  WS02005126           JUNCTION     0.06     0.09     9.19     0  03:01        0.09
  WS02005127           JUNCTION     0.06     0.09     9.12     0  03:02        0.09
  WS02005129           JUNCTION     0.06     0.09     9.02     0  03:01        0.09
  WS02005131           JUNCTION     0.07     0.10     8.86     0  03:02        0.10
  WS02005132           JUNCTION     0.09     0.13     8.77     0  03:03        0.13
  WS02005133           JUNCTION     0.08     0.12     8.73     0  03:03        0.12
  WS02005135           JUNCTION     0.07     0.11     8.67     0  03:01        0.11
  WS02005137           JUNCTION     0.09     0.14     8.56     0  03:02        0.14
  WS02005138           JUNCTION     0.11     0.15     8.50     0  03:03        0.15
  WS02005140           JUNCTION     0.08     0.11     8.43     0  03:03        0.11
  WS02005142           JUNCTION     0.10     0.15     8.31     0  03:01        0.15
  WS02005144           JUNCTION     0.09     0.14     8.19     0  03:02        0.14
  WS02005145           JUNCTION     0.12     0.18     8.08     0  03:03        0.18
  WS02005147           JUNCTION     0.09     0.14     8.01     0  03:03        0.14
  WS02005152           JUNCTION     0.10     0.15     7.87     0  03:04        0.15
  WS02005154           JUNCTION     0.08     0.11     7.75     0  03:04        0.11
  WS02005155           JUNCTION     0.11     0.16     7.47     0  03:04        0.16
  WS02005162           JUNCTION     0.10     0.13     8.13     0  02:55        0.13
  WS02005163           JUNCTION     0.10     0.13     8.17     0  03:01        0.13
  WS02005164           JUNCTION     0.10     0.12     8.20     0  03:01        0.12
  WS02005165           JUNCTION     0.08     0.09     8.27     0  03:03        0.09
  WS02005166           JUNCTION     0.07     0.09     8.36     0  03:02        0.09
  WS02005167           JUNCTION     0.09     0.12     8.42     0  03:01        0.12
  WS02005170           JUNCTION     0.07     0.08     8.48     0  03:02        0.08
  WS02005171           JUNCTION     0.07     0.09     8.56     0  03:01        0.09
  WS02005175           JUNCTION     0.07     0.08     8.65     0  03:01        0.08
  WS02005176           JUNCTION     0.07     0.08     8.70     0  03:03        0.08
  WS02005180           JUNCTION     0.08     0.09     8.74     0  03:03        0.09
  WS02005181           JUNCTION     0.06     0.07     8.77     0  03:02        0.07
  WS02005183           JUNCTION     0.04     0.05     8.91     0  03:02        0.05
  WS02005184           JUNCTION     0.04     0.06     8.97     0  03:01        0.06
  WS02005185           JUNCTION     0.03     0.05     9.07     0  03:01        0.05
  WS02005186           JUNCTION     0.03     0.05     9.16     0  03:01        0.05
  WS02005188           JUNCTION     0.10     0.19     8.13     0  02:54        0.19
  WS02005191           JUNCTION     0.13     0.23     8.13     0  02:54        0.23
  WS02005192           JUNCTION     0.15     0.24     8.11     0  02:53        0.24
  WS02005193           JUNCTION     0.14     0.28     8.10     0  02:55        0.28
  WS02005196           JUNCTION     0.15     0.26     8.11     0  02:55        0.25
  WS02006109           JUNCTION     0.27     0.56     7.18     0  03:00        0.56
  WS02006110           JUNCTION     0.26     0.51     7.11     0  03:00        0.50
  WS02006111           JUNCTION     0.13     0.28     6.86     0  03:01        0.28
  WS02006112           JUNCTION     0.25     0.50     6.62     0  03:01        0.50
  WS02006113           JUNCTION     0.22     0.43     7.02     0  02:59        0.42
  WS02006115           JUNCTION     0.21     0.45     6.55     0  03:00        0.44
  WS02006116           JUNCTION     0.23     0.47     6.51     0  03:00        0.47
  WS02006183           JUNCTION     0.00     0.00     0.00     0  00:00        0.00
  WS02006228           JUNCTION     0.27     0.58     7.23     0  02:59        0.58
  WS02006229           JUNCTION     0.24     0.55     7.24     0  02:59        0.54
  WS02006230           JUNCTION     0.23     0.55     7.30     0  02:59        0.54
  WS02006231           JUNCTION     0.18     0.45     7.35     0  02:59        0.45
  WS02006232           JUNCTION     0.18     0.43     7.46     0  02:58        0.42
  WS02006234           JUNCTION     0.18     0.42     7.58     0  02:58        0.42
  WS02006235           JUNCTION     0.22     0.49     7.66     0  02:58        0.49
  WS02006238           JUNCTION     0.22     0.50     7.68     0  02:57        0.50
  WS02006239           JUNCTION     0.23     0.50     7.71     0  02:59        0.49
  WS02006242           JUNCTION     0.23     0.47     7.77     0  02:59        0.47
  WS02006240           JUNCTION     0.18     0.43     7.72     0  02:59        0.43
  WS02006243           JUNCTION     0.16     0.37     7.79     0  02:58        0.37
  WS02006245           JUNCTION     0.17     0.36     7.85     0  02:58        0.36
  WS02006247           JUNCTION     0.19     0.38     7.89     0  02:58        0.38
  WS02006248           JUNCTION     0.15     0.34     7.93     0  02:57        0.34
  WS02006249           JUNCTION     0.18     0.38     7.98     0  02:57        0.38
  WS02006251           JUNCTION     0.17     0.38     8.05     0  02:56        0.37
  WS02006253           JUNCTION     0.12     0.30     8.10     0  02:56        0.30
  WS02618401           JUNCTION     0.00     0.00     0.00     0  00:00        0.00
  WS8802               JUNCTION     0.00     0.00     4.38     0  00:00        0.00
  WSA1649              JUNCTION     0.00     0.00     0.00     0  00:00        0.00
  WSF200               JUNCTION     0.13     0.24     5.34     0  03:07        0.24
  XR-Inflow            JUNCTION     1.98     6.03     7.84     0  03:05        6.02
  WS02004114           JUNCTION     2.16     6.19     7.79     0  03:05        6.19
  outfall-24           OUTFALL      0.01     0.06     5.56     0  03:05        0.05
  outfall-2            OUTFALL      0.00     0.00     7.00     0  00:00        0.00
  outfall-5            OUTFALL      0.00     0.00     7.67     0  00:00        0.00
  outfall-8            OUTFALL      0.00     0.00     8.00     0  00:00        0.00
  outfall-14           OUTFALL      0.00     0.00     7.66     0  00:00        0.00
  outfall-16           OUTFALL      0.00     0.00     8.39     0  00:00        0.00
  outfall-17           OUTFALL      0.00     0.00     8.15     0  00:00        0.00
  outfall-27           OUTFALL      0.00     0.00     7.90     0  00:00        0.00
  outfall-28           OUTFALL      0.00     0.00     7.30     0  00:00        0.00
  67                   OUTFALL      0.00     0.00    10.20     0  00:00        0.00
  12                   OUTFALL      0.28     0.38     0.38     0  03:09        0.38
  XR-storage           STORAGE      3.25     7.28     7.78     0  03:05        7.28
  CC-storage           STORAGE      1.82     3.02     6.20     0  01:48        3.02
  JK-storage           STORAGE      1.75     3.02     6.02     0  02:52        3.02
  
  
  *******************
  Node Inflow Summary
  *******************
  
  -------------------------------------------------------------------------------------------------
                                  Maximum  Maximum                  Lateral       Total        Flow
                                  Lateral    Total  Time of Max      Inflow      Inflow     Balance
                                   Inflow   Inflow   Occurrence      Volume      Volume       Error
  Node                 Type           MLD      MLD  days hr:min    10^6 ltr    10^6 ltr     Percent
  -------------------------------------------------------------------------------------------------
  WS01000070           JUNCTION      0.00     0.00     0  00:00           0           0       0.000 ltr
  WS01000323           JUNCTION      0.00     0.00     0  00:00           0           0       0.000 ltr
  WS01000533           JUNCTION      0.00     0.00     0  00:00           0           0       0.000 ltr
  WS01005172           JUNCTION      0.00     0.00     0  00:00           0           0       0.000 ltr
  WS01005181           JUNCTION      0.00     0.00     0  00:00           0           0       0.000 ltr
  WS01009841           JUNCTION      0.00     0.00     0  00:00           0           0       0.000 ltr
  WS02000078           JUNCTION      0.00     0.00     0  00:00           0           0       0.000 ltr
  WS02000112           JUNCTION      0.00     0.00     0  00:00           0           0       0.000 ltr
  WS02000136           JUNCTION      0.00     0.00     0  00:00           0           0       0.000 ltr
  WS02001211           JUNCTION      0.25    34.39     0  02:35      0.0407        4.63       0.545
  WS02001212           JUNCTION      0.21    34.46     0  02:36      0.0346        4.63       0.301
  WS02001213           JUNCTION      0.30    34.31     0  03:14      0.0489        4.67       0.404
  WS02003059           JUNCTION      0.23    34.93     0  03:14      0.0378        4.69       0.466
  WS02003060           JUNCTION      0.16    76.31     0  03:07      0.0252        6.84       0.420
  WS02003066           JUNCTION      0.08    50.13     0  03:06      0.0122        2.12       0.102
  WS02003067           JUNCTION      0.26    44.02     0  03:05      0.0395        2.12       0.260
  WS02003071           JUNCTION      0.35    72.06     0  03:08      0.0538        6.86       0.456
  WS02003072           JUNCTION      0.24    72.07     0  03:10      0.0382        6.87       0.283
  WS02003073           JUNCTION      0.07    84.35     0  03:09     0.00978        7.66       0.244
  WS02003076           JUNCTION      0.72    94.00     0  03:11        0.12        7.76       0.166
  WS02003077           JUNCTION      0.04     9.66     0  03:10      0.0059       0.798       0.199
  WS02003078           JUNCTION      0.03     2.54     0  03:04     0.00419       0.158      -0.193
  WS02003079           JUNCTION      0.04     2.19     0  03:04     0.00561       0.154       0.493
  WS02003080           JUNCTION      0.08     7.67     0  03:15      0.0113       0.637       0.457
  WS02003081           JUNCTION      0.03     7.61     0  03:14     0.00406       0.629       0.612
  WS02003082           JUNCTION      0.05     7.59     0  03:13     0.00692       0.629       0.565
  WS02003083           JUNCTION      0.02     7.56     0  03:13      0.0027       0.626       0.588
  WS02003084           JUNCTION      0.06     7.55     0  03:12     0.00885       0.625       0.399
  WS02003085           JUNCTION      0.02     7.51     0  03:12     0.00307       0.618       0.279
  WS02003086           JUNCTION      0.04     7.50     0  03:11     0.00599       0.618       0.428
  WS02003087           JUNCTION      0.06     7.47     0  03:10     0.00824       0.615       0.484
  WS02003088           JUNCTION      0.07     7.43     0  03:10      0.0105       0.609       0.359
  WS02003089           JUNCTION      0.08     7.38     0  03:09      0.0113         0.6       0.236
  WS02003090           JUNCTION      0.04     7.32     0  03:09     0.00647        0.59       0.261
  WS02003091           JUNCTION      0.01     7.29     0  03:09     0.00171       0.584       0.104
  WS02003092           JUNCTION      0.07     0.07     0  01:00     0.00989     0.00989       0.393
  WS02003093           JUNCTION      0.02     0.09     0  01:24     0.00306      0.0129       1.007
  WS02003094           JUNCTION      1.11     1.18     0  03:01      0.0634      0.0761       1.469
  WS02003098           JUNCTION      0.02     1.17     0  03:01     0.00293       0.078       0.775
  WS02003099           JUNCTION      0.07     1.22     0  03:02      0.0109      0.0883       1.696
  WS02003102           JUNCTION      0.98     2.14     0  03:01      0.0528        0.14       0.824
  WS02003103           JUNCTION      0.02     2.12     0  03:01     0.00239       0.141       0.617
  WS02003104           JUNCTION      0.02     2.12     0  03:02     0.00302       0.143       0.511
  WS02003106           JUNCTION      0.05     2.16     0  03:03     0.00728        0.15       0.660
  WS02003110           JUNCTION      0.06     5.35     0  03:04     0.00906       0.391       0.146
  WS02003111           JUNCTION      0.02     5.20     0  03:04      0.0029       0.394       0.140
  WS02003115           JUNCTION      0.24     5.38     0  03:04      0.0198       0.413       0.140
  WS02003116           JUNCTION      0.08     5.49     0  03:05      0.0118       0.433       0.290
  WS02003118           JUNCTION      0.57     5.96     0  03:04      0.0355       0.468       0.354
  WS02003122           JUNCTION      0.07     6.16     0  03:04      0.0101       0.495       0.497
  WS02003123           JUNCTION      0.06     0.38     0  01:31      0.0093      0.0192       1.357
  WS02003126           JUNCTION      0.03     0.03     0  01:00     0.00529     0.00529       0.660
  WS02003187           JUNCTION      0.06     6.12     0  03:05     0.00906       0.497       0.417
  WS02003188           JUNCTION      0.25     6.29     0  03:05      0.0155        0.51       0.724
  WS02003190           JUNCTION      0.06     6.33     0  03:06     0.00956       0.516       0.673
  WS02003193           JUNCTION      0.49     6.68     0  03:06      0.0267       0.539       0.667
  WS02003195           JUNCTION      0.03     6.70     0  03:07      0.0053       0.541       0.674
  WS02003196           JUNCTION      0.02     6.71     0  03:08     0.00301       0.541       0.736
  WS02003198           JUNCTION      0.62     7.16     0  03:07      0.0333        0.57       0.879
  WS02003200           JUNCTION      0.07     7.22     0  03:08      0.0107       0.576       0.366
  WS02003201           JUNCTION      0.01     7.23     0  03:08     0.00183       0.575       0.138
  WS02003202           JUNCTION      0.02     7.24     0  03:09      0.0031       0.578       0.261
  WS02003203           JUNCTION      0.05     7.28     0  03:09     0.00692       0.583       0.123
  WS02003215           JUNCTION      0.06     5.43     0  03:05     0.00945       0.422       0.117
  WS02004050           JUNCTION      0.72    96.74     0  03:11       0.119        7.86       0.627
  WS02004053           JUNCTION      0.00     0.00     0  00:00           0           0       0.000 ltr
  WS02004136           JUNCTION      0.44    32.92     0  01:54      0.0703        4.54       0.070
  WS02004139           JUNCTION      0.38    33.55     0  02:15      0.0619         4.6       0.375
  WS02004401           JUNCTION      0.05    41.28     0  03:01     0.00897        1.67       0.216
  WS02004402           JUNCTION      0.22    41.01     0  03:01      0.0335         1.7       0.191
  WS02004403           JUNCTION      0.23    40.64     0  03:01      0.0349        1.74       0.134
  WS02004404           JUNCTION      0.24    40.51     0  03:01      0.0365        1.77       0.170
  WS02004405           JUNCTION      0.69    40.09     0  03:02       0.043        1.81       0.233
  WS02004406           JUNCTION      1.10    40.58     0  03:02      0.0716        1.88       0.340
  WS02004407           JUNCTION      0.11    39.80     0  03:03      0.0171        1.89       0.305
  WS02004409           JUNCTION      0.87    39.79     0  03:03      0.0686        1.95       0.258
  WS02004410           JUNCTION      0.15    39.77     0  03:03      0.0226        1.97       0.262
  WS02004411           JUNCTION      0.25    40.19     0  03:04      0.0379           2       0.231
  WS02004412           JUNCTION      1.18    42.15     0  03:04      0.0707        2.07       0.184
  WS02004413           JUNCTION      0.11    43.27     0  03:05      0.0172        2.08       0.143
  WS02004997           JUNCTION      0.42    41.12     0  03:00      0.0693        4.72       0.937
  WS02005122           JUNCTION      0.70     0.70     0  03:01      0.0414      0.0414       0.196
  WS02005123           JUNCTION      0.06     0.75     0  03:01     0.00977      0.0511       0.259
  WS02005124           JUNCTION      0.04     0.78     0  03:01     0.00611      0.0571       0.377
  WS02005126           JUNCTION      0.62     1.39     0  03:01      0.0379      0.0948       0.471
  WS02005127           JUNCTION      0.05     1.43     0  03:01     0.00848       0.103       0.407
  WS02005129           JUNCTION      0.72     2.13     0  03:01      0.0405       0.143       0.314
  WS02005131           JUNCTION      0.04     2.16     0  03:01     0.00682       0.149       0.417
  WS02005132           JUNCTION      0.05     2.20     0  03:02     0.00808       0.157       0.586
  WS02005133           JUNCTION      0.06     2.25     0  03:03        0.01       0.166       0.497
  WS02005135           JUNCTION      1.07     3.24     0  03:01      0.0615       0.226       0.298
  WS02005137           JUNCTION      0.04     3.27     0  03:01     0.00625       0.232       0.451
  WS02005138           JUNCTION      0.06     3.32     0  03:02      0.0101       0.241       0.562
  WS02005140           JUNCTION      0.06     3.37     0  03:03        0.01        0.25       0.318
  WS02005142           JUNCTION      1.18     4.45     0  03:01      0.0657       0.315       0.352
  WS02005144           JUNCTION      0.06     4.50     0  03:02     0.00927       0.323       0.340
  WS02005145           JUNCTION      0.04     4.53     0  03:02     0.00618       0.328       0.488
  WS02005147           JUNCTION      0.05     4.57     0  03:03     0.00749       0.334       0.300
  WS02005152           JUNCTION      0.06     4.63     0  03:04     0.00981       0.343       0.348
  WS02005154           JUNCTION      0.52     5.07     0  03:03      0.0327       0.374       0.195
  WS02005155           JUNCTION      0.06     5.12     0  03:04        0.01       0.383       0.253
  WS02005162           JUNCTION      0.08     2.30     0  03:02      0.0127       0.244       0.438
  WS02005163           JUNCTION      0.13     2.23     0  03:01        0.02       0.232       0.429
  WS02005164           JUNCTION      0.30     2.13     0  03:01      0.0203       0.213       0.433
  WS02005165           JUNCTION      0.11     1.85     0  03:02      0.0168       0.194       0.371
  WS02005166           JUNCTION      0.11     1.76     0  03:02      0.0167       0.178       0.400
  WS02005167           JUNCTION      0.30     1.68     0  03:01      0.0214       0.162       0.594
  WS02005170           JUNCTION      0.09     1.40     0  03:01       0.013       0.141       0.426
  WS02005171           JUNCTION      0.02     1.34     0  03:01     0.00326       0.129       0.460
  WS02005175           JUNCTION      0.44     1.33     0  03:01      0.0238       0.126       0.380
  WS02005176           JUNCTION      0.08     0.89     0  03:00      0.0123       0.103       0.517
  WS02005180           JUNCTION      0.11     0.83     0  03:00      0.0172      0.0909       0.729
  WS02005181           JUNCTION      0.13     0.74     0  03:00      0.0203      0.0741       0.565
  WS02005183           JUNCTION      0.03     0.64     0  03:01     0.00433       0.054       0.349
  WS02005184           JUNCTION      0.09     0.62     0  03:01       0.013      0.0499       0.382
  WS02005185           JUNCTION      0.07     0.55     0  03:01      0.0111      0.0369       0.272
  WS02005186           JUNCTION      0.49     0.49     0  03:01      0.0259      0.0259       0.178
  WS02005188           JUNCTION      0.03     3.12     0  02:25     0.00497        0.25       0.778
  WS02005191           JUNCTION      0.06     4.00     0  02:55     0.00844        0.26       0.836
  WS02005192           JUNCTION      1.20     4.90     0  03:00      0.0742       0.336       0.852
  WS02005193           JUNCTION      0.09     6.63     0  02:23      0.0146       0.377       0.963
  WS02005196           JUNCTION      0.12     5.61     0  02:59       0.019       0.356       0.740
  WS02006109           JUNCTION      0.08    39.44     0  02:59      0.0135        1.48       0.323
  WS02006110           JUNCTION      0.08    39.51     0  03:00      0.0132        1.49       0.317
  WS02006111           JUNCTION      0.24    41.40     0  03:00      0.0366         1.6       0.128
  WS02006112           JUNCTION      0.18    41.74     0  03:01      0.0273        1.63       0.234
  WS02006113           JUNCTION      1.27    41.40     0  03:00      0.0841        1.57       0.212
  WS02006115           JUNCTION      0.08    41.81     0  03:00      0.0134        1.64       0.239
  WS02006116           JUNCTION      0.24    41.36     0  03:00       0.036        1.67       0.236
  WS02006183           JUNCTION      0.00     0.00     0  00:00           0           0       0.000 ltr
  WS02006228           JUNCTION      1.24    39.97     0  02:59      0.0885        1.47       0.230
  WS02006229           JUNCTION      0.13    38.78     0  02:59        0.02        1.39       0.178
  WS02006230           JUNCTION      0.07    39.47     0  02:59      0.0116        1.37       0.187
  WS02006231           JUNCTION      0.13    39.89     0  02:58      0.0205        1.36       0.104
  WS02006232           JUNCTION      0.85    39.74     0  02:58      0.0529        1.34       0.121
  WS02006234           JUNCTION      0.14    38.81     0  02:58      0.0216        1.29       0.148
  WS02006235           JUNCTION      0.14    38.79     0  03:26      0.0223        1.27       0.062
  WS02006238           JUNCTION      0.15    38.65     0  02:58      0.0235        1.25       0.143
  WS02006239           JUNCTION      0.11    23.80     0  03:00      0.0174       0.946       0.318
  WS02006242           JUNCTION      0.08    22.20     0  02:58      0.0129        0.92       0.903
  WS02006240           JUNCTION      0.06    22.13     0  02:59     0.00992       0.925       0.402
  WS02006243           JUNCTION      0.17    22.34     0  02:58      0.0269       0.913       0.721
  WS02006245           JUNCTION      0.07    22.25     0  02:57      0.0113       0.892       0.638
  WS02006247           JUNCTION      0.64    22.23     0  02:57      0.0501       0.886       0.615
  WS02006248           JUNCTION      0.12    21.67     0  02:58      0.0192        0.84       0.508
  WS02006249           JUNCTION      0.19    21.82     0  02:56      0.0286       0.828       0.881
  WS02006251           JUNCTION      0.33    21.96     0  02:56      0.0231       0.806       0.886
  WS02006253           JUNCTION      0.11    21.45     0  02:55      0.0173       0.801       0.410
  WS02618401           JUNCTION      0.00     0.00     0  00:00           0           0       0.000 ltr
  WS8802               JUNCTION      0.00     0.00     0  00:00           0           0       0.000 ltr
  WSA1649              JUNCTION      0.00     0.00     0  00:00           0           0       0.000 ltr
  WSF200               JUNCTION      0.14    44.24     0  03:06      0.0216        2.14      -0.018
  XR-Inflow            JUNCTION     40.79    40.79     0  03:00        4.68        4.68       0.491
  WS02004114           JUNCTION      0.57    41.61     0  03:00      0.0916        4.77       0.475
  outfall-24           OUTFALL       0.00     7.72     0  03:05           0       0.174       0.000
  outfall-2            OUTFALL       0.00     0.00     0  00:00           0           0       0.000 ltr
  outfall-5            OUTFALL       0.00     0.00     0  00:00           0           0       0.000 ltr
  outfall-8            OUTFALL       0.00     0.00     0  00:00           0           0       0.000 ltr
  outfall-14           OUTFALL       0.00     0.00     0  00:00           0           0       0.000 ltr
  outfall-16           OUTFALL       0.00     0.00     0  00:00           0           0       0.000 ltr
  outfall-17           OUTFALL       0.00     0.00     0  00:00           0           0       0.000 ltr
  outfall-27           OUTFALL       0.00     0.00     0  00:00           0           0       0.000 ltr
  outfall-28           OUTFALL       0.00     0.00     0  00:00           0           0       0.000 ltr
  67                   OUTFALL       0.00     0.00     0  00:00           0           0       0.000 ltr
  12                   OUTFALL       0.00    85.20     0  03:09           0        7.81       0.000
  XR-storage           STORAGE       0.00    41.58     0  02:59           0        4.75       0.909
  CC-storage           STORAGE       4.94     4.94     0  03:00       0.465       0.465       0.001
  JK-storage           STORAGE       4.47     4.47     0  03:00       0.363       0.363       0.002
  
  
  **********************
  Node Surcharge Summary
  **********************
  
  Surcharging occurs when water rises above the top of the highest conduit.
  ---------------------------------------------------------------------
                                               Max. Height   Min. Depth
                                   Hours       Above Crown    Below Rim
  Node                 Type      Surcharged         Meters       Meters
  ---------------------------------------------------------------------
  WS01000070           JUNCTION        4.00          0.000        0.000
  WS01000323           JUNCTION        4.00          0.000        0.000
  WS01000533           JUNCTION        4.00          0.000        2.147
  WS01005172           JUNCTION        4.00          0.000        0.000
  WS01005181           JUNCTION        4.00          0.000        0.000
  WS01009841           JUNCTION        4.00          0.000        0.000
  WS02000078           JUNCTION        4.00          0.000        0.000
  WS02000112           JUNCTION        4.00          0.000        0.000
  WS02000136           JUNCTION        4.00          0.000        0.000
  WS02004053           JUNCTION        4.00          0.000        0.000
  WS02004997           JUNCTION        1.16          5.300        0.700
  WS02006183           JUNCTION        4.00          0.000        0.000
  WS02618401           JUNCTION        4.00          0.000        0.000
  WS8802               JUNCTION        4.00          0.000        4.942
  WSA1649              JUNCTION        4.00          0.000        0.000
  XR-Inflow            JUNCTION        1.13          5.128        0.522
  WS02004114           JUNCTION        1.16          5.293        1.222
  
  
  *********************
  Node Flooding Summary
  *********************
  
  No nodes were flooded.
  
  
  **********************
  Storage Volume Summary
  **********************
  
  --------------------------------------------------------------------------------------------------
                         Average     Avg  Evap Exfil       Maximum     Max    Time of Max    Maximum
                          Volume    Pcnt  Pcnt  Pcnt        Volume    Pcnt     Occurrence    Outflow
  Storage Unit           1000 m3    Full  Loss  Loss       1000 m3    Full    days hr:min        MLD
  --------------------------------------------------------------------------------------------------
  XR-storage               0.026      42     0     0         0.059      94       0  03:05      40.20
  CC-storage               0.052      32     0     0         0.085      54       0  01:48      17.28
  JK-storage               0.049      36     0     0         0.085      63       0  02:52      17.28
  
  
  ***********************
  Outfall Loading Summary
  ***********************
  
  ---------------------------------------------------------------------------------------------------------------------------------
                         Flow       Avg       Max       Total         Total         Total         Total         Total         Total
                         Freq      Flow      Flow      Volume           COD         NH3-N            TN            TP            SS
  Outfall Node           Pcnt       MLD       MLD    10^6 ltr            kg            kg            kg            kg            kg
  ---------------------------------------------------------------------------------------------------------------------------------
  outfall-24            24.13      4.75      7.72       0.174        17.420         0.000         0.000         0.000         0.000
  outfall-2              0.00      0.00      0.00       0.000         0.000         0.000         0.000         0.000         0.000
  outfall-5              0.00      0.00      0.00       0.000         0.000         0.000         0.000         0.000         0.000
  outfall-8              0.00      0.00      0.00       0.000         0.000         0.000         0.000         0.000         0.000
  outfall-14             0.00      0.00      0.00       0.000         0.000         0.000         0.000         0.000         0.000
  outfall-16             0.00      0.00      0.00       0.000         0.000         0.000         0.000         0.000         0.000
  outfall-17             0.00      0.00      0.00       0.000         0.000         0.000         0.000         0.000         0.000
  outfall-27             0.00      0.00      0.00       0.000         0.000         0.000         0.000         0.000         0.000
  outfall-28             0.00      0.00      0.00       0.000         0.000         0.000         0.000         0.000         0.000
  67                     0.00      0.00      0.00       0.000         0.000         0.000         0.000         0.000         0.000
  12                    99.98     49.27     85.20       7.814      1040.284         0.000         0.000         0.000         0.000
  ---------------------------------------------------------------------------------------------------------------------------------
  System                11.28     54.03     92.29       7.988      1057.704         0.000         0.000         0.000         0.000
  
  
  ********************
  Link Flow Summary
  ********************
  
  -----------------------------------------------------------------------------
                                 Maximum  Time of Max   Maximum    Max/    Max/
                                  |Flow|   Occurrence   |Veloc|    Full    Full
  Link                 Type          MLD  days hr:min     m/sec    Flow   Depth
  -----------------------------------------------------------------------------
  WSL49                CONDUIT     93.28     0  03:11      2.03    1.16    0.52
  WSL50                CONDUIT      7.67     0  03:15      1.42    0.53    0.27
  WSL51                CONDUIT      7.61     0  03:15      0.84    0.77    0.40
  WSL52                CONDUIT      7.59     0  03:14      0.74    0.35    0.44
  WSL53                CONDUIT      7.55     0  03:13      0.70    0.78    0.45
  WSL54                CONDUIT      7.54     0  03:13      0.64    0.60    0.49
  WSL55                CONDUIT      7.50     0  03:12      0.74    0.20    0.43
  WSL77                CONDUIT      7.49     0  03:12      0.85    0.39    0.39
  WSL78                CONDUIT      7.47     0  03:11      0.76    0.49    0.42
  WSL79                CONDUIT      7.43     0  03:10      0.81    0.25    0.40
  WSL80                CONDUIT      7.38     0  03:10      1.07    0.17    0.32
  WSL81                CONDUIT      7.32     0  03:09      1.10    0.54    0.32
  WSL82                CONDUIT      7.29     0  03:09      1.30    0.10    0.28
  WSL83                CONDUIT      7.28     0  03:09      2.00    0.09    0.21
  WSL84                CONDUIT      5.30     0  03:04      1.21    0.16    0.24
  WSL85                CONDUIT      0.44     0  01:30      0.40    0.01    0.37
  WSL86                CONDUIT      0.06     0  03:20      0.20    0.00    0.22
  WSL122               CONDUIT      6.33     0  03:07      0.56    0.63    0.47
  WSL123               CONDUIT      7.24     0  03:09      1.45    0.27    0.26
  WSL144               CONDUIT      6.10     0  03:06      0.58    0.24    0.45
  WSL145               CONDUIT      6.28     0  03:06      0.53    0.59    0.49
  WSL146               CONDUIT      6.67     0  03:07      0.61    0.49    0.46
  WSL147               CONDUIT      6.69     0  03:08      0.60    0.35    0.47
  WSL148               CONDUIT      6.72     0  03:08      0.59    0.64    0.47
  WSL149               CONDUIT      7.16     0  03:08      0.82    0.94    0.39
  WSL150               CONDUIT      7.22     0  03:08      1.15    0.24    0.30
  WSL151               CONDUIT      7.23     0  03:09      1.14    0.18    0.31
  WSL500               CONDUIT      4.63     0  03:04      1.17    0.15    0.22
  WSL502               CONDUIT      5.07     0  03:04      1.24    0.08    0.22
  WSL508               CONDUIT      2.51     0  02:56      0.67    0.09    0.26
  WSL509               CONDUIT      2.24     0  03:02      0.62    0.10    0.21
  WSL551               CONDUIT      2.12     0  03:01      0.84    0.05    0.16
  WSL553               CONDUIT      2.15     0  03:02      0.64    0.06    0.20
  WSL554               CONDUIT      2.19     0  03:03      0.57    0.11    0.21
  WSL555               CONDUIT      2.25     0  03:03      0.66    0.09    0.20
  WSL1465              CONDUIT     35.92     0  03:12      1.42    0.33    0.50
  WSL1472              CONDUIT     71.85     0  03:10      1.68    0.82    0.47
  WSL1475              CONDUIT     96.03     0  03:11      2.57    1.02    0.34
  WSL1476              CONDUIT      9.65     0  03:11      0.61    0.05    0.49
  WSL1477              CONDUIT      2.52     0  03:04      1.50    0.10    0.12
  WSL1490              CONDUIT     34.26     0  02:36      1.36    0.55    0.41
  WSL1491              CONDUIT     34.03     0  03:14      1.30    0.20    0.43
  WSL1492              CONDUIT     34.71     0  03:14      1.25    0.53    0.47
  WSL1506              CONDUIT      0.07     0  01:24      0.40    0.00    0.02
  WSL1507              CONDUIT      0.09     0  01:53      0.21    0.00    0.08
  WSL1508              CONDUIT      1.16     0  03:01      0.47    0.03    0.11
  WSL1512              CONDUIT      1.16     0  03:02      0.36    0.01    0.09
  WSL1513              CONDUIT      1.21     0  03:04      0.31    0.07    0.15
  WSL1515              CONDUIT     50.06     0  03:06      2.27    0.49    0.28
  WSL1516              CONDUIT      2.22     0  03:04      1.24    0.01    0.13
  WSL1518              CONDUIT      2.11     0  03:01      0.51    0.04    0.15
  WSL1519              CONDUIT      2.12     0  03:03      0.48    0.05    0.16
  WSL1521              CONDUIT      2.16     0  03:04      0.53    0.06    0.15
  WSL1525              CONDUIT      5.18     0  03:04      1.45    0.10    0.20
  WSL1526              CONDUIT      5.19     0  03:05      1.27    0.09    0.22
  WSL1529              CONDUIT      5.38     0  03:05      1.22    0.14    0.24
  WSL1530              CONDUIT      5.49     0  03:06      1.12    0.29    0.33
  WSL1532              CONDUIT      5.96     0  03:04      0.92    0.14    0.31
  WSL1543              CONDUIT      2.11     0  03:02      0.47    0.07    0.16
  WSL1545              CONDUIT      6.07     0  03:05      0.70    0.25    0.38
  WSL1641              CONDUIT      2.13     0  03:01      0.58    0.09    0.21
  WSL1642              CONDUIT      1.85     0  03:03      0.62    0.05    0.18
  WSL1643              CONDUIT      1.76     0  03:02      0.72    0.05    0.16
  WSL1644              CONDUIT      1.68     0  03:02      0.58    0.09    0.18
  WSL1646              CONDUIT      1.40     0  03:02      0.52    0.04    0.17
  WSL1647              CONDUIT      1.34     0  03:01      0.63    0.05    0.14
  WSL1652              CONDUIT      0.89     0  03:03      0.51    0.05    0.16
  WSL1764              CONDUIT      5.43     0  03:05      1.08    0.10    0.26
  WSL1931              CONDUIT      0.83     0  03:03      0.44    0.07    0.17
  WSL1932              CONDUIT      0.74     0  03:02      0.40    0.05    0.17
  WSL1934              CONDUIT      0.64     0  03:02      0.51    0.02    0.13
  WSL1935              CONDUIT      0.61     0  03:01      0.58    0.03    0.11
  WSL1961              CONDUIT     33.19     0  02:15      2.59    0.07    0.28
  WSL1964              CONDUIT     34.15     0  02:35      1.20    0.19    0.34
  WSL2010              CONDUIT     40.45     0  03:01      1.43    0.52    0.45
  WSL2011              CONDUIT     40.32     0  03:01      1.34    0.26    0.49
  WSL2012              CONDUIT     39.45     0  03:02      1.17    0.60    0.53
  WSL2013              CONDUIT     39.53     0  03:02      1.23    0.98    0.51
  WSL2014              CONDUIT     39.71     0  03:03      1.26    0.63    0.48
  WSL2015              CONDUIT     38.99     0  03:03      1.28    0.52    0.46
  WSL2016              CONDUIT     39.64     0  03:03      1.34    0.46    0.45
  WSL2017              CONDUIT     39.99     0  03:04      1.48    0.49    0.43
  WSL2018              CONDUIT     43.18     0  03:05      2.00    0.26    0.36
  WSL2019              CONDUIT     43.81     0  03:05      1.91    0.26    0.40
  WSL2028              CONDUIT     40.84     0  03:01      1.37    0.44    0.45
  WSL2029              CONDUIT     41.15     0  03:04      1.76    0.52    0.38
  WSL2031              CONDUIT      0.55     0  03:01      0.54    0.02    0.11
  WSL2032              CONDUIT      0.49     0  03:01      0.64    0.03    0.12
  WSL2034              CONDUIT      3.95     0  02:55      0.65    0.12    0.32
  WSL2037              CONDUIT      3.71     0  03:00      0.57    0.19    0.38
  WSL2038              CONDUIT      5.50     0  02:59      0.77    0.27    0.41
  WSL2039              CONDUIT      8.94     0  02:58      1.37    0.46    0.48
  WSL2041              CONDUIT      5.94     0  02:59      0.88    0.29    0.44
  WSL2124              CONDUIT      3.23     0  03:01      0.84    0.08    0.21
  WSL2126              CONDUIT      3.26     0  03:02      0.69    0.13    0.25
  WSL2127              CONDUIT      3.32     0  03:03      0.81    0.18    0.22
  WSL2128              CONDUIT      3.37     0  03:03      0.86    0.08    0.22
  WSL2130              CONDUIT      4.45     0  03:02      1.00    0.13    0.24
  WSL2146              CONDUIT      4.50     0  03:02      0.88    0.12    0.26
  WSL2147              CONDUIT      4.53     0  03:03      0.89    0.24    0.26
  WSL2148              CONDUIT      4.58     0  03:04      1.02    0.11    0.24
  WSL2294              CONDUIT     39.44     0  03:00      1.29    1.32    0.67
  WSL2295              CONDUIT     40.13     0  03:00      1.54    1.80    0.58
  WSL2296              CONDUIT     41.60     0  03:01      2.01    0.23    0.48
  WSL2297              CONDUIT     41.73     0  03:00      1.37    0.80    0.47
  WSL2298              CONDUIT     41.21     0  03:00      2.29    1.90    0.44
  WSL2301              CONDUIT     41.17     0  03:00      1.39    0.38    0.46
  WSL2302              CONDUIT     41.23     0  03:01      1.37    0.51    0.46
  WSL2357              CONDUIT      0.69     0  03:01      0.71    0.13    0.22
  WSL2358              CONDUIT      0.75     0  03:01      0.88    0.09    0.20
  WSL2359              CONDUIT      0.78     0  03:01      0.47    0.03    0.15
  WSL2361              CONDUIT      1.39     0  03:01      0.66    0.08    0.18
  WSL2362              CONDUIT      1.43     0  03:02      0.70    0.07    0.18
  WSL2441              CONDUIT     39.36     0  02:59      1.36    1.01    0.71
  WSL2442              CONDUIT     38.67     0  02:59      1.53    0.99    0.79
  WSL2443              CONDUIT     39.40     0  02:59      1.72    0.61    0.71
  WSL2444              CONDUIT     39.77     0  02:58      1.87    0.63    0.62
  WSL2446              CONDUIT     38.92     0  02:58      1.88    0.67    0.60
  WSL2447              CONDUIT     38.68     0  02:58      1.75    1.99    0.65
  WSL2448              CONDUIT     38.67     0  03:26      1.59    1.09    0.70
  WSL2449              CONDUIT     26.53     0  02:59      1.22    0.93    0.70
  WSL2450              CONDUIT     23.71     0  03:00      1.21    0.49    0.66
  WSL2451              CONDUIT     22.07     0  02:59      1.17    1.44    0.64
  WSL2452              CONDUIT     22.13     0  02:58      1.24    0.42    0.59
  WSL2454              CONDUIT     22.19     0  02:58      1.46    0.52    0.52
  WSL2478              CONDUIT     22.18     0  02:57      1.27    0.78    0.53
  WSL2479              CONDUIT     21.62     0  02:57      1.26    0.41    0.52
  WSL2480              CONDUIT     21.55     0  02:58      1.26    1.00    0.51
  WSL2482              CONDUIT     21.65     0  02:56      1.21    0.56    0.54
  WSL2484              CONDUIT     21.65     0  02:56      1.83    0.31    0.48
  WSL2493              CONDUIT     38.76     0  02:59      1.35    0.65    0.70
  WSL2867              CONDUIT     44.12     0  03:06      3.21    0.09    0.20
  WSL2868              CONDUIT     44.07     0  03:07      1.62    0.08    0.32
  5                    CONDUIT      1.32     0  03:01      0.68    0.06    0.17
  WSL348               CONDUIT     40.71     0  03:00      1.88    0.37    1.00
  WSL175               CONDUIT     41.07     0  03:00      2.29    1.38    1.00
  WSL1467              CONDUIT     71.77     0  03:08      1.59    0.38    0.47
  WSL1473              CONDUIT     74.70     0  03:09      1.77    0.31    0.49
  XRpipe               CONDUIT     41.58     0  02:59      2.54    0.10    1.00
  8                    CONDUIT      0.00     0  00:00      0.00    0.00    0.00
  19                   CONDUIT      0.00     0  00:00      0.00    0.00    0.00
  17                   CONDUIT      0.00     0  00:00      0.00    0.00    0.00
  4                    CONDUIT      0.00     0  00:00      0.00    0.00    0.00
  outletpipe           CONDUIT      7.72     0  03:05      7.34    0.03    0.11
  11                   CONDUIT      0.00     0  00:00      0.00    0.00    0.00
  20                   CONDUIT      0.00     0  00:00      0.00    0.00    0.00
  1                    CONDUIT      0.00     0  00:00      0.00    0.00    0.00
  28                   CONDUIT      0.00     0  00:00      0.00    0.00    0.00
  30                   CONDUIT      0.00     0  00:00      0.00    0.00    0.00
  2                    CONDUIT     85.20     0  03:09      3.59    0.31    0.38
  XR-Pump-1            PUMP         8.12     0  00:02              1.00
  XR-Pump-3            PUMP         8.12     0  00:09              1.00
  XR-Pump-2            PUMP         8.12     0  00:04              1.00
  XR-Pump-4            PUMP         8.12     0  01:54              1.00
  CC-Pump-1            PUMP        17.28     0  01:05              1.00
  CC-Pump-2            PUMP         0.00     0  00:00              0.00
  JK-Pump-1            PUMP        17.28     0  01:38              1.00
  JK-Pump-2            PUMP         0.00     0  00:00              0.00
  
  
  ***************************
  Flow Classification Summary
  ***************************
  
  -------------------------------------------------------------------------------------
                      Adjusted    ---------- Fraction of Time in Flow Class ---------- 
                       /Actual         Up    Down  Sub   Sup   Up    Down  Norm  Inlet 
  Conduit               Length    Dry  Dry   Dry   Crit  Crit  Crit  Crit  Ltd   Ctrl  
  -------------------------------------------------------------------------------------
  WSL49                   1.00   0.00  0.00  0.00  1.00  0.00  0.00  0.00  0.00  0.00
  WSL50                   1.00   0.00  0.00  0.00  0.11  0.89  0.00  0.00  0.00  0.00
  WSL51                   1.00   0.00  0.00  0.00  1.00  0.00  0.00  0.00  0.01  0.00
  WSL52                   1.00   0.00  0.00  0.00  1.00  0.00  0.00  0.00  0.09  0.00
  WSL53                   1.00   0.00  0.00  0.00  1.00  0.00  0.00  0.00  0.01  0.00
  WSL54                   1.00   0.00  0.00  0.00  1.00  0.00  0.00  0.00  0.00  0.00
  WSL55                   1.00   0.00  0.00  0.00  1.00  0.00  0.00  0.00  0.21  0.00
  WSL77                   1.00   0.00  0.00  0.00  1.00  0.00  0.00  0.00  0.00  0.00
  WSL78                   1.00   0.00  0.00  0.00  1.00  0.00  0.00  0.00  0.00  0.00
  WSL79                   1.00   0.00  0.00  0.00  1.00  0.00  0.00  0.00  0.41  0.00
  WSL80                   1.00   0.00  0.00  0.00  1.00  0.00  0.00  0.00  0.76  0.00
  WSL81                   1.00   0.00  0.00  0.00  1.00  0.00  0.00  0.00  0.00  0.00
  WSL82                   1.00   0.00  0.00  0.00  0.28  0.72  0.00  0.00  1.00  0.00
  WSL83                   1.00   0.00  0.00  0.00  0.00  1.00  0.00  0.00  0.88  0.00
  WSL84                   1.00   0.00  0.00  0.00  0.04  0.96  0.00  0.00  0.04  0.00
  WSL85                   1.00   0.00  0.00  0.00  0.99  0.01  0.00  0.00  0.12  0.00
  WSL86                   1.00   0.00  0.00  0.00  1.00  0.00  0.00  0.00  0.68  0.00
  WSL122                  1.00   0.00  0.00  0.00  1.00  0.00  0.00  0.00  0.00  0.00
  WSL123                  1.00   0.00  0.00  0.00  0.06  0.94  0.00  0.00  0.01  0.00
  WSL144                  1.00   0.00  0.00  0.00  1.00  0.00  0.00  0.00  0.29  0.00
  WSL145                  1.00   0.00  0.00  0.00  1.00  0.00  0.00  0.00  0.01  0.00
  WSL146                  1.00   0.00  0.00  0.00  1.00  0.00  0.00  0.00  0.03  0.00
  WSL147                  1.00   0.00  0.00  0.00  1.00  0.00  0.00  0.00  0.04  0.00
  WSL148                  1.00   0.00  0.00  0.00  1.00  0.00  0.00  0.00  0.00  0.00
  WSL149                  1.00   0.00  0.00  0.00  1.00  0.00  0.00  0.00  0.01  0.00
  WSL150                  1.00   0.00  0.00  0.00  0.52  0.48  0.00  0.00  0.00  0.00
  WSL151                  1.00   0.00  0.00  0.00  0.91  0.09  0.00  0.00  0.13  0.00
  WSL500                  1.00   0.00  0.00  0.00  0.04  0.96  0.00  0.00  0.00  0.00
  WSL502                  1.00   0.00  0.00  0.00  0.03  0.97  0.00  0.00  1.00  0.00
  WSL508                  1.00   0.00  0.00  0.00  1.00  0.00  0.00  0.00  0.04  0.00
  WSL509                  1.00   0.00  0.00  0.00  1.00  0.00  0.00  0.00  0.02  0.00
  WSL551                  1.00   0.00  0.00  0.00  0.66  0.34  0.00  0.00  0.98  0.00
  WSL553                  1.00   0.00  0.00  0.00  1.00  0.00  0.00  0.00  1.00  0.00
  WSL554                  1.00   0.00  0.00  0.00  1.00  0.00  0.00  0.00  0.24  0.00
  WSL555                  1.00   0.00  0.00  0.00  1.00  0.00  0.00  0.00  0.00  0.00
  WSL1465                 1.00   0.00  0.00  0.00  1.00  0.00  0.00  0.00  0.05  0.00
  WSL1472                 1.00   0.00  0.00  0.00  1.00  0.00  0.00  0.00  0.00  0.00
  WSL1475                 1.00   0.00  0.00  0.00  0.11  0.89  0.00  0.00  0.01  0.00
  WSL1476                 1.00   0.00  0.00  0.00  1.00  0.00  0.00  0.00  1.00  0.00
  WSL1477                 1.00   0.00  0.00  0.00  0.01  0.99  0.00  0.00  0.26  0.00
  WSL1490                 1.00   0.00  0.00  0.00  1.00  0.00  0.00  0.00  0.00  0.00
  WSL1491                 1.00   0.00  0.00  0.00  1.00  0.00  0.00  0.00  0.02  0.00
  WSL1492                 1.00   0.00  0.00  0.00  1.00  0.00  0.00  0.00  0.00  0.00
  WSL1506                 1.00   0.00  0.00  0.00  0.99  0.01  0.00  0.00  0.99  0.00
  WSL1507                 1.00   0.00  0.00  0.00  1.00  0.00  0.00  0.00  1.00  0.00
  WSL1508                 1.00   0.00  0.00  0.00  1.00  0.00  0.00  0.00  0.00  0.00
  WSL1512                 1.00   0.00  0.00  0.00  1.00  0.00  0.00  0.00  1.00  0.00
  WSL1513                 1.00   0.00  0.00  0.00  1.00  0.00  0.00  0.00  0.00  0.00
  WSL1515                 1.00   0.00  0.00  0.00  0.11  0.89  0.00  0.00  0.03  0.00
  WSL1516                 1.00   0.00  0.00  0.00  0.00  1.00  0.00  0.00  1.00  0.00
  WSL1518                 1.00   0.00  0.00  0.00  1.00  0.00  0.00  0.00  0.99  0.00
  WSL1519                 1.00   0.00  0.00  0.00  1.00  0.00  0.00  0.00  0.43  0.00
  WSL1521                 1.00   0.00  0.00  0.00  1.00  0.00  0.00  0.00  0.02  0.00
  WSL1525                 1.00   0.00  0.00  0.00  0.00  1.00  0.00  0.00  0.09  0.00
  WSL1526                 1.00   0.00  0.00  0.00  0.02  0.98  0.00  0.00  0.94  0.00
  WSL1529                 1.00   0.00  0.00  0.00  0.02  0.98  0.00  0.00  0.93  0.00
  WSL1530                 1.00   0.00  0.00  0.00  0.52  0.48  0.00  0.00  0.00  0.00
  WSL1532                 1.00   0.00  0.00  0.00  1.00  0.00  0.00  0.00  1.00  0.00
  WSL1543                 1.00   0.00  0.00  0.00  1.00  0.00  0.00  0.00  0.02  0.00
  WSL1545                 1.00   0.00  0.00  0.00  1.00  0.00  0.00  0.00  0.07  0.00
  WSL1641                 1.00   0.00  0.00  0.00  1.00  0.00  0.00  0.00  0.52  0.00
  WSL1642                 1.00   0.00  0.00  0.00  1.00  0.00  0.00  0.00  0.98  0.00
  WSL1643                 1.00   0.00  0.00  0.00  1.00  0.00  0.00  0.00  0.75  0.00
  WSL1644                 1.00   0.00  0.00  0.00  1.00  0.00  0.00  0.00  0.02  0.00
  WSL1646                 1.00   0.00  0.00  0.00  1.00  0.00  0.00  0.00  0.99  0.00
  WSL1647                 1.00   0.00  0.00  0.00  1.00  0.00  0.00  0.00  0.02  0.00
  WSL1652                 1.00   0.00  0.00  0.00  1.00  0.00  0.00  0.00  0.33  0.00
  WSL1764                 1.00   0.00  0.00  0.00  0.33  0.67  0.00  0.00  0.52  0.00
  WSL1931                 1.00   0.00  0.00  0.00  1.00  0.00  0.00  0.00  0.00  0.00
  WSL1932                 1.00   0.00  0.00  0.00  1.00  0.00  0.00  0.00  0.99  0.00
  WSL1934                 1.00   0.00  0.00  0.00  1.00  0.00  0.00  0.00  1.00  0.00
  WSL1935                 1.00   0.00  0.00  0.00  1.00  0.00  0.00  0.00  0.00  0.00
  WSL1961                 1.00   0.00  0.00  0.00  0.00  1.00  0.00  0.00  0.98  0.00
  WSL1964                 1.00   0.00  0.00  0.00  1.00  0.00  0.00  0.00  0.02  0.00
  WSL2010                 1.00   0.00  0.00  0.00  1.00  0.00  0.00  0.00  0.00  0.00
  WSL2011                 1.00   0.00  0.00  0.00  1.00  0.00  0.00  0.00  0.13  0.00
  WSL2012                 1.00   0.00  0.00  0.00  1.00  0.00  0.00  0.00  0.01  0.00
  WSL2013                 1.00   0.00  0.00  0.00  1.00  0.00  0.00  0.00  0.00  0.00
  WSL2014                 1.00   0.00  0.00  0.00  1.00  0.00  0.00  0.00  0.00  0.00
  WSL2015                 1.00   0.00  0.00  0.00  1.00  0.00  0.00  0.00  0.02  0.00
  WSL2016                 1.00   0.00  0.00  0.00  1.00  0.00  0.00  0.00  0.12  0.00
  WSL2017                 1.00   0.00  0.00  0.00  1.00  0.00  0.00  0.00  0.04  0.00
  WSL2018                 1.00   0.00  0.00  0.00  0.01  0.99  0.00  0.00  0.41  0.00
  WSL2019                 1.00   0.00  0.00  0.00  0.29  0.71  0.00  0.00  0.11  0.00
  WSL2028                 1.00   0.00  0.00  0.00  1.00  0.00  0.00  0.00  0.09  0.00
  WSL2029                 1.00   0.00  0.00  0.00  0.68  0.32  0.00  0.00  0.00  0.00
  WSL2031                 1.00   0.00  0.00  0.00  1.00  0.00  0.00  0.00  1.00  0.00
  WSL2032                 1.00   0.00  0.00  0.00  0.66  0.34  0.00  0.00  0.84  0.00
  WSL2034                 1.00   0.00  0.00  0.00  1.00  0.00  0.00  0.00  0.07  0.00
  WSL2037                 1.00   0.00  0.00  0.00  1.00  0.00  0.00  0.00  0.03  0.00
  WSL2038                 1.00   0.00  0.00  0.00  1.00  0.00  0.00  0.00  0.05  0.00
  WSL2039                 1.00   0.00  0.00  0.00  0.62  0.38  0.00  0.00  0.01  0.00
  WSL2041                 1.00   0.00  0.00  0.00  1.00  0.00  0.00  0.00  0.02  0.00
  WSL2124                 1.00   0.00  0.00  0.00  1.00  0.00  0.00  0.00  0.98  0.00
  WSL2126                 1.00   0.00  0.00  0.00  1.00  0.00  0.00  0.00  0.97  0.00
  WSL2127                 1.00   0.00  0.00  0.00  1.00  0.00  0.00  0.00  0.00  0.00
  WSL2128                 1.00   0.00  0.00  0.00  1.00  0.00  0.00  0.00  0.99  0.00
  WSL2130                 1.00   0.00  0.00  0.00  0.85  0.15  0.00  0.00  0.01  0.00
  WSL2146                 1.00   0.00  0.00  0.00  1.00  0.00  0.00  0.00  0.99  0.00
  WSL2147                 1.00   0.00  0.00  0.00  1.00  0.00  0.00  0.00  0.01  0.00
  WSL2148                 1.00   0.00  0.00  0.00  0.72  0.28  0.00  0.00  0.70  0.00
  WSL2294                 1.00   0.00  0.00  0.00  1.00  0.00  0.00  0.00  0.00  0.00
  WSL2295                 1.00   0.00  0.00  0.00  1.00  0.00  0.00  0.00  0.00  0.00
[...]
  WSL2484                 1.00   0.00  0.00  0.00  0.98  0.02  0.00  0.00  0.83  0.00
  WSL2493                 1.00   0.00  0.00  0.00  1.00  0.00  0.00  0.00  0.05  0.00
  WSL2867                 1.00   0.00  0.00  0.00  0.00  1.00  0.00  0.00  0.27  0.00
  WSL2868                 1.00   0.00  0.00  0.00  0.98  0.02  0.00  0.00  0.99  0.00
  5                       1.00   0.00  0.00  0.00  1.00  0.00  0.00  0.00  0.96  0.00
  WSL348                  1.00   0.00  0.00  0.00  1.00  0.00  0.00  0.00  0.01  0.00
  WSL175                  1.00   0.00  0.00  0.00  0.99  0.01  0.00  0.00  0.07  0.00
  WSL1467                 1.00   0.00  0.00  0.00  1.00  0.00  0.00  0.00  0.04  0.00
  WSL1473                 1.00   0.00  0.00  0.00  1.00  0.00  0.00  0.00  0.03  0.00
  XRpipe                  1.00   0.00  0.00  0.00  1.00  0.00  0.00  0.00  0.01  0.00
  8                       1.00   1.00  0.00  0.00  0.00  0.00  0.00  0.00  0.00  0.00
  19                      1.00   1.00  0.00  0.00  0.00  0.00  0.00  0.00  0.00  0.00
  17                      1.00   1.00  0.00  0.00  0.00  0.00  0.00  0.00  0.00  0.00
  4                       1.00   1.00  0.00  0.00  0.00  0.00  0.00  0.00  0.00  0.00
  outletpipe              1.00   0.76  0.00  0.00  0.00  0.24  0.00  0.00  0.00  0.00
  11                      1.00   1.00  0.00  0.00  0.00  0.00  0.00  0.00  0.00  0.00
  20                      1.00   1.00  0.00  0.00  0.00  0.00  0.00  0.00  0.00  0.00
  1                       1.00   1.00  0.00  0.00  0.00  0.00  0.00  0.00  0.00  0.00
  28                      1.00   1.00  0.00  0.00  0.00  0.00  0.00  0.00  0.00  0.00
  30                      1.00   1.00  0.00  0.00  0.00  0.00  0.00  0.00  0.00  0.00
  2                       1.00   0.00  0.00  0.00  0.00  1.00  0.00  0.00  0.31  0.00
  
  
  *************************
  Conduit Surcharge Summary
  *************************
  
  ----------------------------------------------------------------------------
                                                           Hours        Hours 
                         --------- Hours Full --------   Above Full   Capacity
  Conduit                Both Ends  Upstream  Dnstream   Normal Flow   Limited
  ----------------------------------------------------------------------------
  WSL49                       0.01      0.01      0.01      0.07         0.01
  WSL1475                     0.01      0.01      0.01      0.01         0.01
  WSL2294                     0.01      0.01      0.01      0.15         0.01
  WSL2295                     0.01      0.01      0.01      0.32         0.01
  WSL2298                     0.01      0.01      0.01      0.36         0.01
  WSL2441                     0.01      0.01      0.01      0.01         0.01
  WSL2447                     0.01      0.01      0.01      0.41         0.01
  WSL2448                     0.01      0.01      0.01      0.07         0.01
  WSL2451                     0.01      0.01      0.01      0.42         0.01
  WSL348                      1.13      1.13      1.16      0.01         0.01
  WSL175                      1.16      1.16      1.16      1.57         1.15
  XRpipe                      1.16      1.16      3.96      0.01         0.01
  
  
  ***************
  Pumping Summary
  ***************
  
  ---------------------------------------------------------------------------------------------------------
                                                  Min       Avg       Max     Total     Power    % Time Off
                        Percent   Number of      Flow      Flow      Flow    Volume     Usage    Pump Curve
  Pump                 Utilized   Start-Ups       MLD       MLD       MLD  10^6 ltr     Kw-hr    Low   High
  ---------------------------------------------------------------------------------------------------------
  XR-Pump-1               98.82           1      0.00      8.12      8.12     1.337     13.32    0.0    0.0
  XR-Pump-3               90.66           8      0.00      8.12      8.12     1.227     11.90    0.0    0.0
  XR-Pump-2               98.05           1      0.00      8.12      8.12     1.327     13.19    0.0    0.0
  XR-Pump-4               43.04          27      0.00      8.12      8.12     0.582      3.61    0.0    0.0
  CC-Pump-1               14.56           6      0.00     17.28     17.28     0.419      3.29    0.0    0.0
  CC-Pump-2                0.00           0      0.00      0.00      0.00     0.000      0.00    0.0    0.0
  JK-Pump-1               10.13           4      0.00     17.28     17.28     0.292      2.07    0.0    0.0
  JK-Pump-2                0.00           0      0.00      0.00      0.00     0.000      0.00    0.0    0.0
  
  
  ***************************
  Link Pollutant Load Summary
  ***************************
  
  ------------------------------------------------------------------------------------------
                                 COD         NH3-N            TN            TP            SS
  Link                            kg            kg            kg            kg            kg
  ------------------------------------------------------------------------------------------
  WSL49                     1005.010         0.000         0.000         0.000         0.000
  WSL50                       72.337         0.000         0.000         0.000         0.000
  WSL51                       70.811         0.000         0.000         0.000         0.000
  WSL52                       70.552         0.000         0.000         0.000         0.000
  WSL53                       69.786         0.000         0.000         0.000         0.000
  WSL54                       69.696         0.000         0.000         0.000         0.000
  WSL55                       68.467         0.000         0.000         0.000         0.000
  WSL77                       68.137         0.000         0.000         0.000         0.000
  WSL78                       67.439         0.000         0.000         0.000         0.000
  WSL79                       66.384         0.000         0.000         0.000         0.000
  WSL80                       64.849         0.000         0.000         0.000         0.000
  WSL81                       63.084         0.000         0.000         0.000         0.000
  WSL82                       62.179         0.000         0.000         0.000         0.000
  WSL83                       61.925         0.000         0.000         0.000         0.000
  WSL84                       36.869         0.000         0.000         0.000         0.000
  WSL85                        3.639         0.000         0.000         0.000         0.000
  WSL86                        0.878         0.000         0.000         0.000         0.000
  WSL122                      54.958         0.000         0.000         0.000         0.000
  WSL123                      60.860         0.000         0.000         0.000         0.000
  WSL144                      51.864         0.000         0.000         0.000         0.000
  WSL145                      53.740         0.000         0.000         0.000         0.000
  WSL146                      56.005         0.000         0.000         0.000         0.000
  WSL147                      56.519         0.000         0.000         0.000         0.000
  WSL148                      56.580         0.000         0.000         0.000         0.000
  WSL149                      58.779         0.000         0.000         0.000         0.000
  WSL150                      60.262         0.000         0.000         0.000         0.000
  WSL151                      60.504         0.000         0.000         0.000         0.000
  WSL500                      32.883         0.000         0.000         0.000         0.000
  WSL502                      35.304         0.000         0.000         0.000         0.000
  WSL508                      32.227         0.000         0.000         0.000         0.000
  WSL509                      30.265         0.000         0.000         0.000         0.000
  WSL551                      12.982         0.000         0.000         0.000         0.000
  WSL553                      14.066         0.000         0.000         0.000         0.000
  WSL554                      15.312         0.000         0.000         0.000         0.000
  WSL555                      16.889         0.000         0.000         0.000         0.000
  WSL1465                    628.013         0.000         0.000         0.000         0.000
  WSL1472                    913.526         0.000         0.000         0.000         0.000
  WSL1475                   1023.683         0.000         0.000         0.000         0.000
  WSL1476                     88.093         0.000         0.000         0.000         0.000
  WSL1477                     13.927         0.000         0.000         0.000         0.000
  WSL1490                    613.377         0.000         0.000         0.000         0.000
  WSL1491                    617.397         0.000         0.000         0.000         0.000
  WSL1492                    624.141         0.000         0.000         0.000         0.000
  WSL1506                      1.646         0.000         0.000         0.000         0.000
  WSL1507                      2.135         0.000         0.000         0.000         0.000
  WSL1508                      6.558         0.000         0.000         0.000         0.000
  WSL1512                      7.013         0.000         0.000         0.000         0.000
  WSL1513                      8.705         0.000         0.000         0.000         0.000
  WSL1515                    273.201         0.000         0.000         0.000         0.000
  WSL1516                     14.632         0.000         0.000         0.000         0.000
  WSL1518                     11.157         0.000         0.000         0.000         0.000
  WSL1519                     11.927         0.000         0.000         0.000         0.000
  WSL1521                     13.045         0.000         0.000         0.000         0.000
  WSL1525                     38.321         0.000         0.000         0.000         0.000
  WSL1526                     38.754         0.000         0.000         0.000         0.000
  WSL1529                     40.892         0.000         0.000         0.000         0.000
  WSL1530                     44.287         0.000         0.000         0.000         0.000
  WSL1532                     46.761         0.000         0.000         0.000         0.000
  WSL1543                     11.462         0.000         0.000         0.000         0.000
  WSL1545                     50.509         0.000         0.000         0.000         0.000
  WSL1641                     27.073         0.000         0.000         0.000         0.000
  WSL1642                     25.428         0.000         0.000         0.000         0.000
  WSL1643                     22.723         0.000         0.000         0.000         0.000
  WSL1644                     20.032         0.000         0.000         0.000         0.000
  WSL1646                     18.113         0.000         0.000         0.000         0.000
  WSL1647                     16.016         0.000         0.000         0.000         0.000
  WSL1652                     14.300         0.000         0.000         0.000         0.000
  WSL1764                     42.435         0.000         0.000         0.000         0.000
  WSL1931                     12.328         0.000         0.000         0.000         0.000
  WSL1932                      9.550         0.000         0.000         0.000         0.000
  WSL1934                      6.217         0.000         0.000         0.000         0.000
  WSL1935                      5.515         0.000         0.000         0.000         0.000
  WSL1961                    600.402         0.000         0.000         0.000         0.000
  WSL1964                    609.308         0.000         0.000         0.000         0.000
  WSL2010                    221.183         0.000         0.000         0.000         0.000
  WSL2011                    226.675         0.000         0.000         0.000         0.000
  WSL2012                    232.345         0.000         0.000         0.000         0.000
  WSL2013                    235.067         0.000         0.000         0.000         0.000
  WSL2014                    242.106         0.000         0.000         0.000         0.000
  WSL2015                    244.107         0.000         0.000         0.000         0.000
  WSL2016                    251.918         0.000         0.000         0.000         0.000
  WSL2017                    254.984         0.000         0.000         0.000         0.000
  WSL2018                    264.794         0.000         0.000         0.000         0.000
  WSL2019                    267.326         0.000         0.000         0.000         0.000
  WSL2028                    216.034         0.000         0.000         0.000         0.000
  WSL2029                    260.703         0.000         0.000         0.000         0.000
  WSL2031                      3.362         0.000         0.000         0.000         0.000
  WSL2032                      1.522         0.000         0.000         0.000         0.000
  WSL2034                     33.507         0.000         0.000         0.000         0.000
  WSL2037                     34.766         0.000         0.000         0.000         0.000
  WSL2038                     40.341         0.000         0.000         0.000         0.000
  WSL2039                     47.742         0.000         0.000         0.000         0.000
  WSL2041                     43.892         0.000         0.000         0.000         0.000
  WSL2124                     20.452         0.000         0.000         0.000         0.000
  WSL2126                     21.408         0.000         0.000         0.000         0.000
  WSL2127                     22.933         0.000         0.000         0.000         0.000
  WSL2128                     24.528         0.000         0.000         0.000         0.000
  WSL2130                     27.896         0.000         0.000         0.000         0.000
  WSL2146                     29.359         0.000         0.000         0.000         0.000
  WSL2147                     30.215         0.000         0.000         0.000         0.000
  WSL2148                     31.374         0.000         0.000         0.000         0.000
  WSL2294                    192.672         0.000         0.000         0.000         0.000
  WSL2295                    194.139         0.000         0.000         0.000         0.000
  WSL2296                    203.879         0.000         0.000         0.000         0.000
  WSL2297                    207.956         0.000         0.000         0.000         0.000
  WSL2298                    198.025         0.000         0.000         0.000         0.000
  WSL2301                    209.597         0.000         0.000         0.000         0.000
  WSL2302                    215.080         0.000         0.000         0.000         0.000
  WSL2357                      3.393         0.000         0.000         0.000         0.000
  WSL2358                      5.010         0.000         0.000         0.000         0.000
  WSL2359                      6.010         0.000         0.000         0.000         0.000
  WSL2361                      9.312         0.000         0.000         0.000         0.000
  WSL2362                     10.680         0.000         0.000         0.000         0.000
  WSL2441                    191.131         0.000         0.000         0.000         0.000
  WSL2442                    166.316         0.000         0.000         0.000         0.000
  WSL2443                    164.743         0.000         0.000         0.000         0.000
  WSL2444                    161.531         0.000         0.000         0.000         0.000
  WSL2446                    159.510         0.000         0.000         0.000         0.000
  WSL2447                    156.217         0.000         0.000         0.000         0.000
  WSL2448                    152.672         0.000         0.000         0.000         0.000
  WSL2449                    120.975         0.000         0.000         0.000         0.000
  WSL2450                    117.581         0.000         0.000         0.000         0.000
  WSL2451                    115.271         0.000         0.000         0.000         0.000
  WSL2452                    114.000         0.000         0.000         0.000         0.000
  WSL2454                    110.179         0.000         0.000         0.000         0.000
  WSL2478                    108.865         0.000         0.000         0.000         0.000
  WSL2479                    104.617         0.000         0.000         0.000         0.000
  WSL2480                    101.807         0.000         0.000         0.000         0.000
  WSL2482                     97.835         0.000         0.000         0.000         0.000
  WSL2484                     96.024         0.000         0.000         0.000         0.000
  WSL2493                    169.305         0.000         0.000         0.000         0.000
  WSL2867                    274.948         0.000         0.000         0.000         0.000
  WSL2868                    278.885         0.000         0.000         0.000         0.000
  5                           15.554         0.000         0.000         0.000         0.000
  WSL348                     597.834         0.000         0.000         0.000         0.000
  WSL175                     604.377         0.000         0.000         0.000         0.000
  WSL1467                    908.125         0.000         0.000         0.000         0.000
  WSL1473                    917.597         0.000         0.000         0.000         0.000
  XRpipe                     617.335         0.000         0.000         0.000         0.000
  8                            0.000         0.000         0.000         0.000         0.000
  19                           0.000         0.000         0.000         0.000         0.000
  17                           0.000         0.000         0.000         0.000         0.000
  4                            0.000         0.000         0.000         0.000         0.000
  outletpipe                  17.420         0.000         0.000         0.000         0.000
  11                           0.000         0.000         0.000         0.000         0.000
  20                           0.000         0.000         0.000         0.000         0.000
  1                            0.000         0.000         0.000         0.000         0.000
  28                           0.000         0.000         0.000         0.000         0.000
  30                           0.000         0.000         0.000         0.000         0.000
  2                         1040.284         0.000         0.000         0.000         0.000
  XR-Pump-1                  182.076         0.000         0.000         0.000         0.000
  XR-Pump-3                  163.688         0.000         0.000         0.000         0.000
  XR-Pump-2                  180.350         0.000         0.000         0.000         0.000
  XR-Pump-4                   62.392         0.000         0.000         0.000         0.000
  CC-Pump-1                   49.396         0.000         0.000         0.000         0.000
  CC-Pump-2                    0.000         0.000         0.000         0.000         0.000
  JK-Pump-1                   29.973         0.000         0.000         0.000         0.000
  JK-Pump-2                    0.000         0.000         0.000         0.000         0.000
  

  Analysis begun on:  Mon Oct 29 01:05:56 2018
  Analysis ended on:  Mon Oct 29 01:05:57 2018
  Total elapsed time: 00:00:01